
###############################################################################
#
# This file contains modified crystal structure data generated from the
# MOF subset of the Cambridge Structural Database (CSD) v543 
# hosted by the Cambridge Crystallographic Data Centre (CCDC).
#
# This work is licensed under the Creative Commons
# Attribution-NonCommercial-ShareAlike 4.0 International License.
# To view a copy of this license, visit
# http://creativecommons.org/licenses/by-nc-sa/4.0/
# or send a letter to
# Creative Commons, PO Box 1866, Mountain View, CA 94042, USA.
#
# CIF created using the CSD Python API on 29 September 2022
# The structure has been converted into the P1 space group
# The structure has a 3D framework
# The original CSD entry YUYBIF is in the orthorhombic crystal system
# The framework has been calculated to contain at least 10.0% void space
# The void calculation uses a probe of radius 1.32A, grid spacing 0.4
#
###############################################################################

data_YUYBIF
_chemical_formula_moiety         '(C104 H80 Cd5 N32 O32 S8)n'
_symmetry_cell_setting           triclinic
_symmetry_space_group_name_H-M   'P 1'
_symmetry_Int_Tables_number      1
_space_group_name_Hall           'P 1'
loop_
_symmetry_equiv_pos_site_id
_symmetry_equiv_pos_as_xyz
1 x,y,z
_cell_length_a                   9.5095(14)
_cell_length_b                   19.840(3)
_cell_length_c                   21.035(3)
_cell_angle_alpha                90
_cell_angle_beta                 90
_cell_angle_gamma                90
_cell_volume                     3968.64
loop_
_atom_site_label
_atom_site_type_symbol
_atom_site_fract_x
_atom_site_fract_y
_atom_site_fract_z
Cd3 Cd 0.00754(2) 0.553464(12) 0.073860(12)
Cd1 Cd 0.50754(2) 0.553464(12) 0.426140(12)
N1 N 0.4830(3) 0.53803(16) 0.31789(15)
N2 N 0.4431(3) 0.55940(17) 0.21755(14)
N3 N 0.5600(3) 0.56616(17) 0.11603(14)
N4 N 0.7680(3) 0.55277(15) 0.07328(13)
O1 O 0.9711(3) 0.18115(14) 0.39812(16)
O2 O 0.8060(3) 0.11891(12) 0.44272(13)
O3 O 0.7215(3) 0.45827(11) 0.40205(12)
O4 O 0.5210(2) 0.44353(11) 0.45464(12)
S1 S 0.81767(10) 0.31384(5) 0.41213(5)
C1 C 0.6582(4) 0.34819(16) 0.43311(16)
C2 C 0.5667(4) 0.30010(18) 0.45273(17)
H1 H 0.4753 0.3092 0.4658
C3 C 0.6249(4) 0.23470(18) 0.45120(18)
H2 H 0.5761 0.1962 0.4634
C4 C 0.7588(4) 0.23396(17) 0.43012(17)
C5 C 0.8538(4) 0.17445(19) 0.42251(18)
C6 C 0.6354(4) 0.42222(17) 0.42909(16)
C7 C 0.4039(5) 0.4872(2) 0.2921(2)
H3 H 0.3724 0.4495 0.3141
C8 C 0.3784(5) 0.4998(2) 0.2305(2)
H4 H 0.3270 0.4732 0.2024
C9 C 0.5045(4) 0.5805(2) 0.27107(18)
H5 H 0.5559 0.6202 0.2747
C10 C 0.4476(4) 0.5930(3) 0.15604(18)
H6 H 0.4624 0.6409 0.1624
H7 H 0.3581 0.5871 0.1346
C11 C 0.5536(4) 0.5083(3) 0.08093(19)
H8 H 0.4766 0.4799 0.0761
C12 C 0.6817(4) 0.5009(2) 0.05495(18)
H9 H 0.7081 0.4657 0.0283
C13 C 0.6894(4) 0.5913(2) 0.11022(18)
H10 H 0.7202 0.6307 0.1296
Cd2 Cd 0.49246(2) 0.446536(12) 0.573860(12)
Cd4 Cd 0.99246(2) 0.053464(12) 0.426140(12)
N5 N 0.2680(3) 0.55277(15) 0.42672(13)
O5 O 0.5289(3) 0.68115(14) 0.39812(16)
O6 O 0.6940(3) 0.61891(12) 0.44272(13)
O7 O 0.4790(2) 0.55647(11) 0.54536(12)
O7_2 O 0.0210(2) 0.44353(11) 0.04536(12)
N1_2 N 0.0170(3) 0.46197(16) 0.81789(15)
N2_2 N 0.0569(3) 0.44060(17) 0.71755(14)
H1_2 H 0.0247 0.6908 0.9658
C7_2 C 0.0961(5) 0.5128(2) 0.7921(2)
H3_2 H 0.1276 0.5505 0.8141
C8_2 C 0.1216(5) 0.5002(2) 0.7305(2)
H4_2 H 0.1730 0.5268 0.7024
C10_2 C 0.0524(4) 0.4070(3) 0.65604(18)
H6_2 H 0.0376 0.3591 0.6624
H7_2 H 0.1419 0.4129 0.6346
H8_2 H 0.0234 0.5201 0.5761
N5_2 N 0.2320(3) 0.44723(15) 0.92672(13)
Cd1_2 Cd 0.99246(2) 0.446536(12) 0.926140(12)
N3_2 N 0.9400(3) 0.43384(17) 0.61603(14)
N4_2 N 0.7320(3) 0.44723(15) 0.57328(13)
O1_2 O 0.5289(3) 0.81885(14) 0.89812(16)
O2_2 O 0.6940(3) 0.88109(12) 0.94272(13)
O3_2 O 0.7785(3) 0.54173(11) 0.90205(12)
O4_2 O 0.9790(2) 0.55647(11) 0.95464(12)
S1_2 S 0.68233(10) 0.68616(5) 0.91213(5)
C1_2 C 0.8418(4) 0.65181(16) 0.93311(16)
C2_2 C 0.9333(4) 0.69990(18) 0.95273(17)
C3_2 C 0.8751(4) 0.76530(18) 0.95120(18)
H2_2 H 0.9239 0.8038 0.9634
C4_2 C 0.7412(4) 0.76604(17) 0.93012(17)
C5_2 C 0.6462(4) 0.82555(19) 0.92251(18)
C6_2 C 0.8646(4) 0.57778(17) 0.92909(16)
C9_2 C 0.9955(4) 0.4195(2) 0.77107(18)
H5_2 H 0.9441 0.3798 0.7747
C11_2 C 0.9464(4) 0.4917(3) 0.58093(19)
C12_2 C 0.8183(4) 0.4991(2) 0.55495(18)
H9_2 H 0.7919 0.5343 0.5283
C13_2 C 0.8106(4) 0.4087(2) 0.61022(18)
H10_2 H 0.7798 0.3693 0.6296
Cd4_2 Cd 0.50754(2) 0.946536(12) 0.926140(12)
O5_2 O 0.9711(3) 0.31885(14) 0.89812(16)
O6_2 O 0.8060(3) 0.38109(12) 0.94272(13)
Cd1_3 Cd 0.49246(2) 0.053464(12) 0.073860(12)
N1_3 N 0.5170(3) 0.03803(16) 0.18211(15)
N2_3 N 0.5569(3) 0.05940(17) 0.28245(14)
N3_3 N 0.4400(3) 0.06616(17) 0.38397(14)
N4_3 N 0.2320(3) 0.05277(15) 0.42672(13)
C9_3 C 0.4955(4) 0.0805(2) 0.22893(18)
H5_3 H 0.4441 0.1202 0.2253
C10_3 C 0.5524(4) 0.0930(3) 0.34396(18)
H6_3 H 0.5376 0.1409 0.3376
H7_3 H 0.6419 0.0871 0.3654
C11_3 C 0.4464(4) 0.0083(3) 0.41907(19)
C12_3 C 0.3183(4) 0.0009(2) 0.44505(18)
C13_3 C 0.3106(4) 0.0913(2) 0.38978(18)
H10_3 H 0.2798 0.1307 0.3704
N5_3 N 0.7320(3) 0.05277(15) 0.07328(13)
O5_3 O 0.4711(3) 0.18115(14) 0.10188(16)
O6_3 O 0.3060(3) 0.11891(12) 0.05728(13)
O7_3 O 0.5210(2) 0.05647(11) 0.95464(12)
O1_3 O 0.0289(3) 0.68115(14) 0.10188(16)
O2_3 O 0.1940(3) 0.61891(12) 0.05728(13)
O3_3 O 0.2785(3) 0.95827(11) 0.09795(12)
O4_3 O 0.4790(2) 0.94353(11) 0.04536(12)
S1_3 S 0.18233(10) 0.81384(5) 0.08787(5)
C1_3 C 0.3418(4) 0.84819(16) 0.06689(16)
C2_3 C 0.4333(4) 0.80010(18) 0.04727(17)
H1_3 H 0.5247 0.8092 0.0342
C3_3 C 0.3751(4) 0.73470(18) 0.04880(18)
H2_3 H 0.4239 0.6962 0.0366
C4_3 C 0.2412(4) 0.73396(17) 0.06988(17)
C5_3 C 0.1462(4) 0.67445(19) 0.07749(18)
C6_3 C 0.3646(4) 0.92222(17) 0.07091(16)
C7_3 C 0.5961(5) 0.9872(2) 0.2079(2)
H3_3 H 0.6276 0.9495 0.1859
C8_3 C 0.6216(5) 0.9998(2) 0.2695(2)
H4_3 H 0.6730 0.9732 0.2976
H8_3 H 0.5234 0.9799 0.4239
H9_3 H 0.2919 0.9657 0.4717
O1_4 O 0.4711(3) 0.31885(14) 0.60188(16)
O2_4 O 0.3060(3) 0.38109(12) 0.55728(13)
O3_4 O 0.2215(3) 0.04173(11) 0.59795(12)
O4_4 O 0.0210(2) 0.05647(11) 0.54536(12)
S1_4 S 0.31767(10) 0.18616(5) 0.58787(5)
C1_4 C 0.1582(4) 0.15181(16) 0.56689(16)
C2_4 C 0.0667(4) 0.19990(18) 0.54727(17)
C3_4 C 0.1249(4) 0.26530(18) 0.54880(18)
H2_4 H 0.0761 0.3038 0.5366
C4_4 C 0.2588(4) 0.26604(17) 0.56988(17)
C5_4 C 0.3538(4) 0.32555(19) 0.57749(18)
C6_4 C 0.1354(4) 0.07778(17) 0.57091(16)
H9_4 H 0.2081 0.0343 0.9717
Cd1_4 Cd 0.00754(2) 0.946536(12) 0.573860(12)
N3_4 N 0.0600(3) 0.93384(17) 0.88397(14)
N4_4 N 0.2680(3) 0.94723(15) 0.92672(13)
C9_4 C 0.0045(4) 0.9195(2) 0.72893(18)
H5_4 H 0.0559 0.8798 0.7253
C11_4 C 0.0536(4) 0.9917(3) 0.91907(19)
C12_4 C 0.1817(4) 0.9991(2) 0.94505(18)
C13_4 C 0.1894(4) 0.9087(2) 0.88978(18)
H10_4 H 0.2202 0.8693 0.8704
O5_4 O 0.0289(3) 0.81885(14) 0.60188(16)
O6_4 O 0.1940(3) 0.88109(12) 0.55728(13)
H1_4 H 0.9753 0.1908 0.5342
C7_4 C 0.9039(5) 0.0128(2) 0.7079(2)
H3_4 H 0.8724 0.0505 0.6859
C8_4 C 0.8784(5) 0.0002(2) 0.7695(2)
H4_4 H 0.8270 0.0268 0.7976
H8_4 H 0.9766 0.0201 0.9239
N1_4 N 0.9830(3) 0.96197(16) 0.68211(15)
N2_4 N 0.9431(3) 0.94060(17) 0.78245(14)
C10_4 C 0.9476(4) 0.9070(3) 0.84396(18)
H6_4 H 0.9624 0.8591 0.8376
H7_4 H 0.8581 0.9129 0.8654
N5_4 N 0.7680(3) 0.94723(15) 0.57328(13)
O7_4 O 0.9790(2) 0.94353(11) 0.45464(12)
N1_5 N 0.5170(3) 0.46197(16) 0.68211(15)
N2_5 N 0.5569(3) 0.44060(17) 0.78245(14)
N3_5 N 0.4400(3) 0.43384(17) 0.88397(14)
O3_5 O 0.2785(3) 0.54173(11) 0.59795(12)
S1_5 S 0.18233(10) 0.68616(5) 0.58787(5)
C1_5 C 0.3418(4) 0.65181(16) 0.56689(16)
C2_5 C 0.4333(4) 0.69990(18) 0.54727(17)
H1_5 H 0.5247 0.6908 0.5342
C3_5 C 0.3751(4) 0.76530(18) 0.54880(18)
H2_5 H 0.4239 0.8038 0.5366
C4_5 C 0.2412(4) 0.76604(17) 0.56988(17)
C5_5 C 0.1462(4) 0.82555(19) 0.57749(18)
C6_5 C 0.3646(4) 0.57778(17) 0.57091(16)
C7_5 C 0.5961(5) 0.5128(2) 0.7079(2)
H3_5 H 0.6276 0.5505 0.6859
C8_5 C 0.6216(5) 0.5002(2) 0.7695(2)
H4_5 H 0.6730 0.5268 0.7976
C9_5 C 0.4955(4) 0.4195(2) 0.72893(18)
H5_5 H 0.4441 0.3798 0.7253
C10_5 C 0.5524(4) 0.4070(3) 0.84396(18)
H6_5 H 0.5376 0.3591 0.8376
H7_5 H 0.6419 0.4129 0.8654
C11_5 C 0.4464(4) 0.4917(3) 0.91907(19)
H8_5 H 0.5234 0.5201 0.9239
C12_5 C 0.3183(4) 0.4991(2) 0.94505(18)
H9_5 H 0.2919 0.5343 0.9717
C13_5 C 0.3106(4) 0.4087(2) 0.88978(18)
H10_5 H 0.2798 0.3693 0.8704
N3_6 N 0.0600(3) 0.56616(17) 0.38397(14)
O3_6 O 0.2215(3) 0.45827(11) 0.09795(12)
S1_6 S 0.31767(10) 0.31384(5) 0.08787(5)
C1_6 C 0.1582(4) 0.34819(16) 0.06689(16)
C2_6 C 0.0667(4) 0.30010(18) 0.04727(17)
C3_6 C 0.1249(4) 0.23470(18) 0.04880(18)
H2_6 H 0.0761 0.1962 0.0366
C4_6 C 0.2588(4) 0.23396(17) 0.06988(17)
C5_6 C 0.3538(4) 0.17445(19) 0.07749(18)
C6_6 C 0.1354(4) 0.42222(17) 0.07091(16)
C9_6 C 0.0045(4) 0.5805(2) 0.22893(18)
H5_6 H 0.0559 0.6202 0.2253
C11_6 C 0.0536(4) 0.5083(3) 0.41907(19)
C12_6 C 0.1817(4) 0.5009(2) 0.44505(18)
H9_6 H 0.2081 0.4657 0.4717
C13_6 C 0.1894(4) 0.5913(2) 0.38978(18)
H10_6 H 0.2202 0.6307 0.3704
N1_6 N 0.9830(3) 0.53803(16) 0.18211(15)
N2_6 N 0.9431(3) 0.55940(17) 0.28245(14)
H1_6 H 0.9753 0.3092 0.0342
C7_6 C 0.9039(5) 0.4872(2) 0.2079(2)
H3_6 H 0.8724 0.4495 0.1859
C8_6 C 0.8784(5) 0.4998(2) 0.2695(2)
H4_6 H 0.8270 0.4732 0.2976
C10_6 C 0.9476(4) 0.5930(3) 0.34396(18)
H6_6 H 0.9624 0.6409 0.3376
H7_6 H 0.8581 0.5871 0.3654
H8_6 H 0.9766 0.4799 0.4239
O3_7 O 0.7215(3) 0.04173(11) 0.90205(12)
S1_7 S 0.81767(10) 0.18616(5) 0.91213(5)
C1_7 C 0.6582(4) 0.15181(16) 0.93311(16)
C2_7 C 0.5667(4) 0.19990(18) 0.95273(17)
H1_7 H 0.4753 0.1908 0.9658
C3_7 C 0.6249(4) 0.26530(18) 0.95120(18)
H2_7 H 0.5761 0.3038 0.9634
C4_7 C 0.7588(4) 0.26604(17) 0.93012(17)
C5_7 C 0.8538(4) 0.32555(19) 0.92251(18)
C6_7 C 0.6354(4) 0.07778(17) 0.92909(16)
C7_7 C 0.4039(5) 0.0128(2) 0.7921(2)
H3_7 H 0.3724 0.0505 0.8141
C8_7 C 0.3784(5) 0.0002(2) 0.7305(2)
H4_7 H 0.3270 0.0268 0.7024
H8_7 H 0.4766 0.0201 0.5761
H9_7 H 0.7081 0.0343 0.5283
N1_7 N 0.4830(3) 0.96197(16) 0.81789(15)
N2_7 N 0.4431(3) 0.94060(17) 0.71755(14)
N3_7 N 0.5600(3) 0.93384(17) 0.61603(14)
C9_7 C 0.5045(4) 0.9195(2) 0.77107(18)
H5_7 H 0.5559 0.8798 0.7747
C10_7 C 0.4476(4) 0.9070(3) 0.65604(18)
H6_7 H 0.4624 0.8591 0.6624
H7_7 H 0.3581 0.9129 0.6346
C11_7 C 0.5536(4) 0.9917(3) 0.58093(19)
C12_7 C 0.6817(4) 0.9991(2) 0.55495(18)
C13_7 C 0.6894(4) 0.9087(2) 0.61022(18)
H10_7 H 0.7202 0.8693 0.6296
N1_8 N 0.0170(3) 0.03803(16) 0.31789(15)
N2_8 N 0.0569(3) 0.05940(17) 0.21755(14)
C10_8 C 0.0524(4) 0.0930(3) 0.15604(18)
H6_8 H 0.0376 0.1409 0.1624
H7_8 H 0.1419 0.0871 0.1346
H1_8 H 0.0247 0.8092 0.4658
C7_8 C 0.0961(5) 0.9872(2) 0.2921(2)
H3_8 H 0.1276 0.9495 0.3141
C8_8 C 0.1216(5) 0.9998(2) 0.2305(2)
H4_8 H 0.1730 0.9732 0.2024
H8_8 H 0.0234 0.9799 0.0761
N3_8 N 0.9400(3) 0.06616(17) 0.11603(14)
C9_8 C 0.9955(4) 0.0805(2) 0.27107(18)
H5_8 H 0.9441 0.1202 0.2747
C11_8 C 0.9464(4) 0.0083(3) 0.08093(19)
C12_8 C 0.8183(4) 0.0009(2) 0.05495(18)
C13_8 C 0.8106(4) 0.0913(2) 0.11022(18)
H10_8 H 0.7798 0.1307 0.1296
O3_8 O 0.7785(3) 0.95827(11) 0.40205(12)
S1_8 S 0.68233(10) 0.81384(5) 0.41213(5)
C1_8 C 0.8418(4) 0.84819(16) 0.43311(16)
C2_8 C 0.9333(4) 0.80010(18) 0.45273(17)
C3_8 C 0.8751(4) 0.73470(18) 0.45120(18)
H2_8 H 0.9239 0.6962 0.4634
C4_8 C 0.7412(4) 0.73396(17) 0.43012(17)
C5_8 C 0.6462(4) 0.67445(19) 0.42251(18)
C6_8 C 0.8646(4) 0.92222(17) 0.42909(16)
H9_8 H 0.7919 0.9657 0.0283
loop_
_geom_bond_atom_site_label_1
_geom_bond_atom_site_label_2
_geom_bond_site_symmetry_1
_geom_bond_site_symmetry_2
Cd1 N1 1_555 1_555
N1 C7 1_555 1_555
N2 C8 1_555 1_555
N3 C10 1_555 1_555
N4 C12 1_555 1_555
O1 C5 1_555 1_555
O2 C5 1_555 1_555
O3 C6 1_555 1_555
O4 Cd1 1_555 1_555
S1 C1 1_555 1_555
C1 C2 1_555 1_555
C2 H1 1_555 1_555
C3 C2 1_555 1_555
H2 C3 1_555 1_555
C4 S1 1_555 1_555
C5 C4 1_555 1_555
C6 O4 1_555 1_555
C7 H3 1_555 1_555
C8 C7 1_555 1_555
H4 C8 1_555 1_555
C9 N1 1_555 1_555
H5 C9 1_555 1_555
C10 N2 1_555 1_555
H6 C10 1_555 1_555
H7 C10 1_555 1_555
C11 N3 1_555 1_555
H8 C11 1_555 1_555
C12 C11 1_555 1_555
H9 C12 1_555 1_555
C13 N3 1_555 1_555
H10 C13 1_555 1_555
Cd2 O4 1_555 1_555
Cd4 O1 1_555 1_555
N5 Cd1 1_555 1_555
O5 Cd1 1_555 1_555
O6 Cd1 1_555 1_555
O7 Cd1 1_555 1_555
N2 C9 1_555 1_555
N4 C13 1_555 1_555
O2 Cd4 1_555 1_555
C1 C6 1_555 1_555
C3 C4 1_555 1_555
Cd2 O7 1_555 1_555
Cd3 O7_2 1_555 1_555
N1_2 C7_2 1_555 1_555
N2_2 C8_2 1_555 1_555
C7_2 H3_2 1_555 1_555
C8_2 C7_2 1_555 1_555
H4_2 C8_2 1_555 1_555
C10_2 N2_2 1_555 1_555
H6_2 C10_2 1_555 1_555
H7_2 C10_2 1_555 1_555
N4_2 C12_2 1_555 1_555
O1_2 C5_2 1_555 1_555
O2_2 C5_2 1_555 1_555
O3_2 C6_2 1_555 1_555
O4_2 Cd1_2 1_555 1_555
S1_2 C1_2 1_555 1_555
C1_2 C2_2 1_555 1_555
C3_2 C2_2 1_555 1_555
H2_2 C3_2 1_555 1_555
C4_2 S1_2 1_555 1_555
C5_2 C4_2 1_555 1_555
C6_2 O4_2 1_555 1_555
H5_2 C9_2 1_555 1_555
C11_2 N3_2 1_555 1_555
C12_2 C11_2 1_555 1_555
H9_2 C12_2 1_555 1_555
C13_2 N3_2 1_555 1_555
H10_2 C13_2 1_555 1_555
Cd2 N4_2 1_555 1_555
Cd4_2 O1_2 1_555 1_555
O5_2 Cd1_2 1_555 1_555
O6_2 Cd1_2 1_555 1_555
N4_2 C13_2 1_555 1_555
O2_2 Cd4_2 1_555 1_555
C1_2 C6_2 1_555 1_555
C3_2 C4_2 1_555 1_555
Cd1_3 N1_3 1_555 1_555
N3_3 C10_3 1_555 1_555
N4_3 C12_3 1_555 1_555
C9_3 N1_3 1_555 1_555
H5_3 C9_3 1_555 1_555
C10_3 N2_3 1_555 1_555
H6_3 C10_3 1_555 1_555
H7_3 C10_3 1_555 1_555
C11_3 N3_3 1_555 1_555
C12_3 C11_3 1_555 1_555
C13_3 N3_3 1_555 1_555
H10_3 C13_3 1_555 1_555
N5_3 Cd1_3 1_555 1_555
O5_3 Cd1_3 1_555 1_555
O6_3 Cd1_3 1_555 1_555
N2_3 C9_3 1_555 1_555
N4_3 C13_3 1_555 1_555
O1_3 C5_3 1_555 1_555
O2_3 C5_3 1_555 1_555
O3_3 C6_3 1_555 1_555
S1_3 C1_3 1_555 1_555
C1_3 C2_3 1_555 1_555
C2_3 H1_3 1_555 1_555
C3_3 C2_3 1_555 1_555
H2_3 C3_3 1_555 1_555
C4_3 S1_3 1_555 1_555
C5_3 C4_3 1_555 1_555
C6_3 O4_3 1_555 1_555
C7_3 H3_3 1_555 1_555
C8_3 C7_3 1_555 1_555
H4_3 C8_3 1_555 1_555
Cd3 O1_3 1_555 1_555
O2_3 Cd3 1_555 1_555
C1_3 C6_3 1_555 1_555
C3_3 C4_3 1_555 1_555
O1_4 C5_4 1_555 1_555
O2_4 C5_4 1_555 1_555
O3_4 C6_4 1_555 1_555
S1_4 C1_4 1_555 1_555
C1_4 C2_4 1_555 1_555
C3_4 C2_4 1_555 1_555
H2_4 C3_4 1_555 1_555
C4_4 S1_4 1_555 1_555
C5_4 C4_4 1_555 1_555
C6_4 O4_4 1_555 1_555
Cd2 O1_4 1_555 1_555
O2_4 Cd2 1_555 1_555
C1_4 C6_4 1_555 1_555
C3_4 C4_4 1_555 1_555
N4_4 C12_4 1_555 1_555
H5_4 C9_4 1_555 1_555
C11_4 N3_4 1_555 1_555
C12_4 C11_4 1_555 1_555
C13_4 N3_4 1_555 1_555
H10_4 C13_4 1_555 1_555
Cd4_2 N4_4 1_555 1_555
O5_4 Cd1_4 1_555 1_555
O6_4 Cd1_4 1_555 1_555
N4_4 C13_4 1_555 1_555
C7_4 H3_4 1_555 1_555
C8_4 C7_4 1_555 1_555
H4_4 C8_4 1_555 1_555
C10_4 N2_4 1_555 1_555
H6_4 C10_4 1_555 1_555
H7_4 C10_4 1_555 1_555
Cd2 N1_5 1_555 1_555
N1_5 C7_5 1_555 1_555
N2_5 C8_5 1_555 1_555
N3_5 C10_5 1_555 1_555
N5_2 C12_5 1_555 1_555
O5_4 C5_5 1_555 1_555
O6_4 C5_5 1_555 1_555
O3_5 C6_5 1_555 1_555
S1_5 C1_5 1_555 1_555
C1_5 C2_5 1_555 1_555
C2_5 H1_5 1_555 1_555
C3_5 C2_5 1_555 1_555
H2_5 C3_5 1_555 1_555
C4_5 S1_5 1_555 1_555
C5_5 C4_5 1_555 1_555
C6_5 O7 1_555 1_555
C7_5 H3_5 1_555 1_555
C8_5 C7_5 1_555 1_555
H4_5 C8_5 1_555 1_555
C9_5 N1_5 1_555 1_555
H5_5 C9_5 1_555 1_555
C10_5 N2_5 1_555 1_555
H6_5 C10_5 1_555 1_555
H7_5 C10_5 1_555 1_555
C11_5 N3_5 1_555 1_555
H8_5 C11_5 1_555 1_555
C12_5 C11_5 1_555 1_555
H9_5 C12_5 1_555 1_555
C13_5 N3_5 1_555 1_555
H10_5 C13_5 1_555 1_555
N2_5 C9_5 1_555 1_555
N5_2 C13_5 1_555 1_555
C1_5 C6_5 1_555 1_555
C3_5 C4_5 1_555 1_555
N5 C12_6 1_555 1_555
O5_3 C5_6 1_555 1_555
O6_3 C5_6 1_555 1_555
O3_6 C6_6 1_555 1_555
S1_6 C1_6 1_555 1_555
C1_6 C2_6 1_555 1_555
C3_6 C2_6 1_555 1_555
H2_6 C3_6 1_555 1_555
C4_6 S1_6 1_555 1_555
C5_6 C4_6 1_555 1_555
C6_6 O7_2 1_555 1_555
H5_6 C9_6 1_555 1_555
C11_6 N3_6 1_555 1_555
C12_6 C11_6 1_555 1_555
H9_6 C12_6 1_555 1_555
C13_6 N3_6 1_555 1_555
H10_6 C13_6 1_555 1_555
N5 C13_6 1_555 1_555
C1_6 C6_6 1_555 1_555
C3_6 C4_6 1_555 1_555
N1_6 C7_6 1_555 1_555
N2_6 C8_6 1_555 1_555
C7_6 H3_6 1_555 1_555
C8_6 C7_6 1_555 1_555
H4_6 C8_6 1_555 1_555
C10_6 N2_6 1_555 1_555
H6_6 C10_6 1_555 1_555
H7_6 C10_6 1_555 1_555
O5_2 C5_7 1_555 1_555
O6_2 C5_7 1_555 1_555
O3_7 C6_7 1_555 1_555
S1_7 C1_7 1_555 1_555
C1_7 C2_7 1_555 1_555
C2_7 H1_7 1_555 1_555
C3_7 C2_7 1_555 1_555
H2_7 C3_7 1_555 1_555
C4_7 S1_7 1_555 1_555
C5_7 C4_7 1_555 1_555
C6_7 O7_3 1_555 1_555
C7_7 H3_7 1_555 1_555
C8_7 C7_7 1_555 1_555
H4_7 C8_7 1_555 1_555
C1_7 C6_7 1_555 1_555
C3_7 C4_7 1_555 1_555
Cd4_2 N1_7 1_555 1_555
N3_7 C10_7 1_555 1_555
N5_4 C12_7 1_555 1_555
C9_7 N1_7 1_555 1_555
H5_7 C9_7 1_555 1_555
C10_7 N2_7 1_555 1_555
H6_7 C10_7 1_555 1_555
H7_7 C10_7 1_555 1_555
C11_7 N3_7 1_555 1_555
C12_7 C11_7 1_555 1_555
C13_7 N3_7 1_555 1_555
H10_7 C13_7 1_555 1_555
N2_7 C9_7 1_555 1_555
N5_4 C13_7 1_555 1_555
C10_8 N2_8 1_555 1_555
H6_8 C10_8 1_555 1_555
H7_8 C10_8 1_555 1_555
C7_8 H3_8 1_555 1_555
C8_8 C7_8 1_555 1_555
H4_8 C8_8 1_555 1_555
N5_3 C12_8 1_555 1_555
H5_8 C9_8 1_555 1_555
C11_8 N3_8 1_555 1_555
C12_8 C11_8 1_555 1_555
C13_8 N3_8 1_555 1_555
H10_8 C13_8 1_555 1_555
N5_3 C13_8 1_555 1_555
O5 C5_8 1_555 1_555
O6 C5_8 1_555 1_555
O3_8 C6_8 1_555 1_555
S1_8 C1_8 1_555 1_555
C1_8 C2_8 1_555 1_555
C3_8 C2_8 1_555 1_555
H2_8 C3_8 1_555 1_555
C4_8 S1_8 1_555 1_555
C5_8 C4_8 1_555 1_555
C6_8 O7_4 1_555 1_555
C1_8 C6_8 1_555 1_555
C3_8 C4_8 1_555 1_555

#END
