
###############################################################################
#
# This file contains modified crystal structure data generated from the
# MOF subset of the Cambridge Structural Database (CSD) v543 
# hosted by the Cambridge Crystallographic Data Centre (CCDC).
#
# This work is licensed under the Creative Commons
# Attribution-NonCommercial-ShareAlike 4.0 International License.
# To view a copy of this license, visit
# http://creativecommons.org/licenses/by-nc-sa/4.0/
# or send a letter to
# Creative Commons, PO Box 1866, Mountain View, CA 94042, USA.
#
# CIF created using the CSD Python API on 29 September 2022
# The structure has been converted into the P1 space group
# The structure has a 3D framework
# The original CSD entry YUZCAZ is in the trigonal crystal system
# The original CSD entry YUZCAZ is in a Sohncke space group
# The framework has been calculated to contain at least 10.0% void space
# The void calculation uses a probe of radius 1.32A, grid spacing 0.4
#
###############################################################################

data_YUZCAZ
_chemical_formula_moiety         '(C30 H36 N48 Zn2)n'
_symmetry_cell_setting           triclinic
_symmetry_space_group_name_H-M   'P 1'
_symmetry_Int_Tables_number      1
_space_group_name_Hall           'P 1'
loop_
_symmetry_equiv_pos_site_id
_symmetry_equiv_pos_as_xyz
1 x,y,z
_cell_length_a                   9.6896(16)
_cell_length_b                   9.6896(16)
_cell_length_c                   20.153(4)
_cell_angle_alpha                90
_cell_angle_beta                 90
_cell_angle_gamma                120
_cell_volume                     1638.63
loop_
_atom_site_label
_atom_site_type_symbol
_atom_site_fract_x
_atom_site_fract_y
_atom_site_fract_z
N1 N 0.3485(4) 0.8315(5) 0.51349(17)
N2 N 0.4090(4) 0.8135(5) 0.45329(18)
N3 N 0.1429(4) 0.6825(4) 0.44901(18)
N4 N 0.0882(4) 0.7457(5) 0.55686(17)
H2 H 0.1200 0.7847 0.5986
N5 N 0.2168(6) 0.4199(4) 0.28902(17)
N6 N 0.0315(7) 0.4269(5) 0.35025(18)
N8 N 0.0593(8) 0.1505(6) 0.2497(2)
H4 H 0.1249 0.1648 0.2147
C1 C 0.1902(5) 0.7512(5) 0.5093(2)
C2 C 0.2829(5) 0.7241(5) 0.4178(2)
C3 C 0.2939(5) 0.6781(6) 0.3471(2)
H5 H 0.2745 0.7470 0.3168
H6 H 0.4039 0.7001 0.3391
C4 C 0.1810(8) 0.5086(6) 0.3301(2)
C5 C 0.0768(8) 0.2786(5) 0.2861(2)
Zn2 Zn 0.50690(6) 0.93674(6) 0.58402(2)
Zn3 Zn 0.42984(8) 0.49310(6) 0.25069(2)
Zn1 Zn 0.93674(6) 0.50690(6) 0.41598(2)
H1 H 0.9874 0.6534 0.5613
N7 N 0.9629(7) 0.2759(5) 0.3222(2)
H3 H 0.9581 0.0836 0.2290
N9 N 0.8315(5) 0.3485(4) 0.48651(17)
N10 N 0.7969(7) 0.5801(4) 0.37765(17)
Zn1_2 Zn 0.49310(6) 0.42984(8) 0.74931(2)
N1_2 N 0.1685(5) 0.5170(6) 0.84682(17)
N2_2 N 0.1865(5) 0.5955(6) 0.78662(18)
N3_2 N 0.3175(4) 0.4604(6) 0.78234(18)
N4_2 N 0.2543(5) 0.3425(6) 0.89019(17)
H1_2 H 0.3466 0.3340 0.8946
H2_2 H 0.2153 0.3353 0.9319
N5_2 N 0.5801(4) 0.7969(7) 0.62235(17)
N6_2 N 0.5731(5) 0.6046(9) 0.68358(18)
N7_2 N 0.7241(5) 0.6870(9) 0.6555(2)
N8_2 N 0.8495(6) 0.9088(10) 0.5830(2)
H3_2 H 0.9164 0.8745 0.5623
H4_2 H 0.8352 0.9601 0.5480
C1_2 C 0.2488(5) 0.4390(7) 0.8426(2)
C2_2 C 0.2759(5) 0.5588(7) 0.7511(2)
C3_2 C 0.3219(6) 0.6158(8) 0.6804(2)
H5_2 H 0.2530 0.5275 0.6501
H6_2 H 0.2999 0.7038 0.6724
C4_2 C 0.4914(6) 0.6724(10) 0.6634(2)
C5_2 C 0.7214(5) 0.7982(9) 0.6194(2)
Zn2_2 Zn 0.06326(6) 0.57016(8) 0.91735(2)
N9_2 N 0.6515(4) 0.4830(6) 0.81984(17)
N10_2 N 0.4199(4) 0.2168(8) 0.71098(17)
Zn1_3 Zn 0.57016(8) 0.06326(6) 0.08265(2)
H1_3 H 0.6660 0.0126 0.2280
N9_3 N 0.5170(6) 0.1685(5) 0.15318(17)
N10_3 N 0.7832(8) 0.2031(7) 0.04431(17)
N1_3 N 0.4830(6) 0.6515(4) 0.18016(17)
N2_3 N 0.4045(6) 0.5910(4) 0.11996(18)
N3_3 N 0.5396(6) 0.8571(4) 0.11568(18)
N4_3 N 0.6575(6) 0.9118(4) 0.22353(17)
H2_3 H 0.6647 0.8800 0.2653
N6_3 N 0.3954(9) 0.9685(7) 0.01692(18)
C1_3 C 0.5610(7) 0.8098(5) 0.1760(2)
C2_3 C 0.4412(7) 0.7171(5) 0.0845(2)
C3_3 C 0.3842(8) 0.7061(5) 0.0138(2)
H6_3 H 0.2962 0.5961 0.0058
N5_3 N 0.2031(7) 0.7832(6) 0.95569(17)
N8_3 N 0.0912(10) 0.9407(8) 0.9164(2)
H4_3 H 0.0399 0.8751 0.8814
H5_3 H 0.4725 0.7255 0.9835
C4_3 C 0.3276(10) 0.8190(8) 0.9968(2)
C5_3 C 0.2018(9) 0.9232(8) 0.9528(2)
N2_4 N 0.8135(5) 0.4090(4) 0.54671(18)
N3_4 N 0.6825(4) 0.1429(4) 0.55099(18)
N4_4 N 0.7457(5) 0.0882(4) 0.44314(17)
H2_4 H 0.7847 0.1200 0.4014
N6_4 N 0.4269(5) 0.0315(7) 0.64975(18)
N8_4 N 0.1505(6) 0.0593(8) 0.7503(2)
H4_4 H 0.1648 0.1249 0.7853
C1_4 C 0.7512(5) 0.1902(5) 0.4907(2)
C2_4 C 0.7241(5) 0.2829(5) 0.5822(2)
C3_4 C 0.6781(6) 0.2939(5) 0.6529(2)
H5_4 H 0.7470 0.2745 0.6832
H6_4 H 0.7001 0.4039 0.6609
C4_4 C 0.5086(6) 0.1810(8) 0.6699(2)
C5_4 C 0.2786(5) 0.0768(8) 0.7139(2)
H1_4 H 0.6534 0.9874 0.4387
N7_3 N 0.2759(5) 0.9629(7) 0.6778(2)
H3_3 H 0.0836 0.9581 0.7710
N2_5 N 0.5955(6) 0.1865(5) 0.21338(18)
N3_5 N 0.4604(6) 0.3175(4) 0.21766(18)
N4_5 N 0.3425(6) 0.2543(5) 0.10981(17)
H1_5 H 0.3340 0.3466 0.1054
H2_5 H 0.3353 0.2153 0.0681
N6_5 N 0.6046(9) 0.5731(5) 0.31642(18)
N7_4 N 0.6870(9) 0.7241(5) 0.3445(2)
N8_5 N 0.9088(10) 0.8495(6) 0.4170(2)
H3_4 H 0.8745 0.9164 0.4377
H4_5 H 0.9601 0.8352 0.4520
C1_5 C 0.4390(7) 0.2488(5) 0.1574(2)
C2_5 C 0.5588(7) 0.2759(5) 0.2489(2)
C3_5 C 0.6158(8) 0.3219(6) 0.3196(2)
H5_5 H 0.5275 0.2530 0.3499
H6_5 H 0.7038 0.2999 0.3276
C4_5 C 0.6724(10) 0.4914(6) 0.3366(2)
C5_5 C 0.7982(9) 0.7214(5) 0.3806(2)
H1_6 H 0.0126 0.6660 0.7720
N8_6 N 0.9407(8) 0.0912(10) 0.0836(2)
H4_6 H 0.8751 0.0399 0.1186
H5_6 H 0.7255 0.4725 0.0165
C4_6 C 0.8190(8) 0.3276(10) 0.0032(2)
C5_6 C 0.9232(8) 0.2018(9) 0.0472(2)
N2_6 N 0.5910(4) 0.4045(6) 0.88004(18)
N3_6 N 0.8571(4) 0.5396(6) 0.88432(18)
N4_6 N 0.9118(4) 0.6575(6) 0.77647(17)
H2_6 H 0.8800 0.6647 0.7347
N6_6 N 0.9685(7) 0.3954(9) 0.98308(18)
C1_6 C 0.8098(5) 0.5610(7) 0.8240(2)
C2_6 C 0.7171(5) 0.4412(7) 0.9155(2)
C3_6 C 0.7061(5) 0.3842(8) 0.9862(2)
H6_6 H 0.5961 0.2962 0.9942
N7_5 N 0.3130(9) 0.0371(7) 0.9889(2)
H3_5 H 0.1255 0.0419 0.8957
N7_6 N 0.0371(7) 0.3130(9) 0.0111(2)
H3_6 H 0.0419 0.1255 0.1043
loop_
_geom_bond_atom_site_label_1
_geom_bond_atom_site_label_2
_geom_bond_site_symmetry_1
_geom_bond_site_symmetry_2
N1 N2 1_555 1_555
N2 C2 1_555 1_555
N3 C1 1_555 1_555
H2 N4 1_555 1_555
N5 C4 1_555 1_555
H4 N8 1_555 1_555
C1 N1 1_555 1_555
C2 N3 1_555 1_555
C3 C2 1_555 1_555
H5 C3 1_555 1_555
H6 C3 1_555 1_555
C4 N6 1_555 1_555
C5 N5 1_555 1_555
Zn2 N1 1_555 1_555
Zn3 N5 1_555 1_555
N4 C1 1_555 1_555
N8 C5 1_555 1_555
C3 C4 1_555 1_555
N9 Zn1 1_555 1_555
N10 Zn1 1_555 1_555
Zn1_2 N3_2 1_555 1_555
N1_2 N2_2 1_555 1_555
N2_2 C2_2 1_555 1_555
N3_2 C1_2 1_555 1_555
N4_2 H1_2 1_555 1_555
H2_2 N4_2 1_555 1_555
N5_2 C4_2 1_555 1_555
N6_2 Zn1_2 1_555 1_555
N7_2 N6_2 1_555 1_555
N8_2 H3_2 1_555 1_555
H4_2 N8_2 1_555 1_555
C1_2 N1_2 1_555 1_555
C2_2 N3_2 1_555 1_555
C3_2 C2_2 1_555 1_555
H5_2 C3_2 1_555 1_555
H6_2 C3_2 1_555 1_555
C4_2 N6_2 1_555 1_555
C5_2 N5_2 1_555 1_555
Zn2_2 N1_2 1_555 1_555
Zn2 N5_2 1_555 1_555
N9_2 Zn1_2 1_555 1_555
N10_2 Zn1_2 1_555 1_555
N4_2 C1_2 1_555 1_555
N7_2 C5_2 1_555 1_555
N8_2 C5_2 1_555 1_555
C3_2 C4_2 1_555 1_555
N9_3 Zn1_3 1_555 1_555
N10_3 Zn1_3 1_555 1_555
N1_3 N2_3 1_555 1_555
N2_3 C2_3 1_555 1_555
N3_3 C1_3 1_555 1_555
H2_3 N4_3 1_555 1_555
C1_3 N1_3 1_555 1_555
C2_3 N3_3 1_555 1_555
C3_3 C2_3 1_555 1_555
H6_3 C3_3 1_555 1_555
Zn3 N1_3 1_555 1_555
N4_3 C1_3 1_555 1_555
N5_3 C4_3 1_555 1_555
H4_3 N8_3 1_555 1_555
C5_3 N5_3 1_555 1_555
Zn2_2 N5_3 1_555 1_555
N8_3 C5_3 1_555 1_555
N9 N2_4 1_555 1_555
N2_4 C2_4 1_555 1_555
N3_4 C1_4 1_555 1_555
H2_4 N4_4 1_555 1_555
N10_2 C4_4 1_555 1_555
H4_4 N8_4 1_555 1_555
C1_4 N9 1_555 1_555
C2_4 N3_4 1_555 1_555
C3_4 C2_4 1_555 1_555
H5_4 C3_4 1_555 1_555
H6_4 C3_4 1_555 1_555
C4_4 N6_4 1_555 1_555
C5_4 N10_2 1_555 1_555
N4_4 C1_4 1_555 1_555
N8_4 C5_4 1_555 1_555
C3_4 C4_4 1_555 1_555
Zn3 N3_5 1_555 1_555
N9_3 N2_5 1_555 1_555
N2_5 C2_5 1_555 1_555
N3_5 C1_5 1_555 1_555
N4_5 H1_5 1_555 1_555
H2_5 N4_5 1_555 1_555
N10 C4_5 1_555 1_555
N6_5 Zn3 1_555 1_555
N7_4 N6_5 1_555 1_555
N8_5 H3_4 1_555 1_555
H4_5 N8_5 1_555 1_555
C1_5 N9_3 1_555 1_555
C2_5 N3_5 1_555 1_555
C3_5 C2_5 1_555 1_555
H5_5 C3_5 1_555 1_555
H6_5 C3_5 1_555 1_555
C4_5 N6_5 1_555 1_555
C5_5 N10 1_555 1_555
N4_5 C1_5 1_555 1_555
N7_4 C5_5 1_555 1_555
N8_5 C5_5 1_555 1_555
C3_5 C4_5 1_555 1_555
N10_3 C4_6 1_555 1_555
H4_6 N8_6 1_555 1_555
C5_6 N10_3 1_555 1_555
N8_6 C5_6 1_555 1_555
N9_2 N2_6 1_555 1_555
N2_6 C2_6 1_555 1_555
N3_6 C1_6 1_555 1_555
H2_6 N4_6 1_555 1_555
C1_6 N9_2 1_555 1_555
C2_6 N3_6 1_555 1_555
C3_6 C2_6 1_555 1_555
H6_6 C3_6 1_555 1_555
N4_6 C1_6 1_555 1_555

#END
