
###############################################################################
#
# This file contains modified crystal structure data generated from the
# MOF subset of the Cambridge Structural Database (CSD) v543 
# hosted by the Cambridge Crystallographic Data Centre (CCDC).
#
# This work is licensed under the Creative Commons
# Attribution-NonCommercial-ShareAlike 4.0 International License.
# To view a copy of this license, visit
# http://creativecommons.org/licenses/by-nc-sa/4.0/
# or send a letter to
# Creative Commons, PO Box 1866, Mountain View, CA 94042, USA.
#
# CIF created using the CSD Python API on 29 September 2022
# The structure has been converted into the P1 space group
# The structure has a 3D framework
# The original CSD entry YUZLEN is in the monoclinic crystal system
# The framework has been calculated to contain at least 10.0% void space
# The void calculation uses a probe of radius 1.32A, grid spacing 0.4
#
###############################################################################

data_YUZLEN
_chemical_formula_moiety         '(C32 H16 Cu4 N12 O16)n'
_symmetry_cell_setting           triclinic
_symmetry_space_group_name_H-M   'P 1'
_symmetry_Int_Tables_number      1
_space_group_name_Hall           'P 1'
loop_
_symmetry_equiv_pos_site_id
_symmetry_equiv_pos_as_xyz
1 x,y,z
_cell_length_a                   4.689971(35)
_cell_length_b                   20.43484(15)
_cell_length_c                   10.94281(11)
_cell_angle_alpha                90
_cell_angle_beta                 96.9398(6)
_cell_angle_gamma                90
_cell_volume                     1041.06
loop_
_atom_site_label
_atom_site_type_symbol
_atom_site_fract_x
_atom_site_fract_y
_atom_site_fract_z
_atom_site_U_iso_or_equiv
_atom_site_thermal_displace_type
O2 O 0.0532(19) 0.1850(4) 0.3614(8) 0.0153 Uiso
O3 O 0.4250(19) 0.3139(4) 0.3712(8) 0.0153 Uiso
O4 O 0.0563(17) 0.3367(4) 0.4603(7) 0.0153 Uiso
C6 C 0.1905(32) 0.3208(7) 0.3651(13) 0.0153 Uiso
Cu6 Cu 0.6378(6) 0.33630(9) 0.53092(21) 0.0153 Uiso
O14 O 0.0563(17) 0.1633(4) 0.9603(7) 0.0153 Uiso
Cu1 Cu 0.6378(6) 0.16370(9) 0.03092(21) 0.0153 Uiso
O1 O 0.8098(21) 0.1420(4) 0.2009(9) 0.0153 Uiso
N1 N 0.6926(30) 0.2571(5) 0.0850(10) 0.0153 Uiso
N2 N 0.9059(28) 0.3718(5) 0.2019(10) 0.0153 Uiso
C1 C 0.850(4) 0.2567(7) 0.1957(13) 0.0153 Uiso
C2 C 0.9906(30) 0.3113(7) 0.2474(12) 0.0153 Uiso
C3 C 0.7167(32) 0.3714(6) 0.0899(12) 0.0153 Uiso
C4 C 0.6112(34) 0.3119(6) 0.0320(15) 0.0153 Uiso
C5 C 0.8928(30) 0.1880(6) 0.2587(12) 0.0153 Uiso
C7 C 0.4117(30) 0.0412(7) 0.0831(13) 0.0153 Uiso
H1 H 0.6876 0.4132 0.0408 0.0153 Uiso
H3 H 0.3188 0.0697 0.1405 0.0153 Uiso
N3 N 0.5592(26) 0.0650(4) 0.9960(12) 0.0153 Uiso
C8 C 0.6736(27) 0.0238(8) 0.9125(12) 0.0153 Uiso
H2 H 0.4748 0.3149 0.9521 0.0153 Uiso
H4 H 0.8031 0.0428 0.8526 0.0153 Uiso
O10 O 0.4250(19) 0.1861(4) 0.8712(8) 0.0153 Uiso
N4 N 0.4408(26) 0.9350(4) 0.0040(12) 0.0153 Uiso
C10 C 0.3264(27) 0.9762(8) 0.0875(12) 0.0153 Uiso
H6 H 0.1969 0.9572 0.1474 0.0153 Uiso
H8 H 0.5252 0.6851 0.0479 0.0153 Uiso
O9 O 0.5750(19) 0.8139(4) 0.1288(8) 0.0153 Uiso
O12 O 0.9437(17) 0.8367(4) 0.0397(7) 0.0153 Uiso
C9 C 0.5883(30) 0.9588(7) 0.9169(13) 0.0153 Uiso
H5 H 0.6812 0.9303 0.8595 0.0153 Uiso
Cu2 Cu 0.3622(6) 0.83630(9) 0.96908(21) 0.0153 Uiso
O5 O 0.1902(21) 0.8580(4) 0.7991(9) 0.0153 Uiso
N5 N 0.3074(30) 0.7429(5) 0.9150(10) 0.0153 Uiso
N6 N 0.0941(28) 0.6282(5) 0.7981(10) 0.0153 Uiso
C11 C 0.150(4) 0.7433(7) 0.8043(13) 0.0153 Uiso
C12 C 0.0094(30) 0.6887(7) 0.7526(12) 0.0153 Uiso
C13 C 0.2833(32) 0.6286(6) 0.9101(12) 0.0153 Uiso
C14 C 0.3888(34) 0.6881(6) 0.9680(15) 0.0153 Uiso
C15 C 0.1072(30) 0.8120(6) 0.7413(12) 0.0153 Uiso
H7 H 0.3124 0.5868 0.9592 0.0153 Uiso
Cu4 Cu 0.3622(6) 0.66370(9) 0.46908(21) 0.0153 Uiso
O6 O 0.9468(19) 0.8150(4) 0.6386(8) 0.0153 Uiso
O7 O 0.5750(19) 0.6861(4) 0.6288(8) 0.0153 Uiso
O8 O 0.9437(17) 0.6633(4) 0.5397(7) 0.0153 Uiso
C16 C 0.8095(32) 0.6792(7) 0.6349(13) 0.0153 Uiso
O6_2 O 0.0532(19) 0.3150(4) 0.8614(8) 0.0153 Uiso
C16_2 C 0.1905(32) 0.1792(7) 0.8651(13) 0.0153 Uiso
O1_2 O 0.1902(21) 0.6420(4) 0.2991(9) 0.0153 Uiso
N1_2 N 0.3074(30) 0.7571(5) 0.4150(10) 0.0153 Uiso
N2_2 N 0.0941(28) 0.8718(5) 0.2981(10) 0.0153 Uiso
N3_2 N 0.4408(26) 0.5650(4) 0.5040(12) 0.0153 Uiso
C1_2 C 0.150(4) 0.7567(7) 0.3043(13) 0.0153 Uiso
C2_2 C 0.0094(30) 0.8113(7) 0.2526(12) 0.0153 Uiso
C3_2 C 0.2833(32) 0.8714(6) 0.4101(12) 0.0153 Uiso
C4_2 C 0.3888(34) 0.8119(6) 0.4680(15) 0.0153 Uiso
C5_2 C 0.1072(30) 0.6880(6) 0.2413(12) 0.0153 Uiso
C7_2 C 0.5883(30) 0.5412(7) 0.4169(13) 0.0153 Uiso
C8_2 C 0.3264(27) 0.5238(8) 0.5875(12) 0.0153 Uiso
H1_2 H 0.3124 0.9132 0.4592 0.0153 Uiso
H2_2 H 0.5252 0.8149 0.5479 0.0153 Uiso
H3_2 H 0.6812 0.5697 0.3595 0.0153 Uiso
H4_2 H 0.1969 0.5428 0.6474 0.0153 Uiso
N4_2 N 0.5592(26) 0.4350(4) 0.4960(12) 0.0153 Uiso
C9_2 C 0.4117(30) 0.4588(7) 0.5831(13) 0.0153 Uiso
C10_2 C 0.6736(27) 0.4762(8) 0.4125(12) 0.0153 Uiso
H5_2 H 0.3188 0.4303 0.6405 0.0153 Uiso
H6_2 H 0.8031 0.4572 0.3526 0.0153 Uiso
O5_2 O 0.8098(21) 0.3580(4) 0.7009(9) 0.0153 Uiso
N5_2 N 0.6926(30) 0.2429(5) 0.5850(10) 0.0153 Uiso
N6_2 N 0.9059(28) 0.1282(5) 0.7019(10) 0.0153 Uiso
C11_2 C 0.850(4) 0.2433(7) 0.6957(13) 0.0153 Uiso
C12_2 C 0.9906(30) 0.1887(7) 0.7474(12) 0.0153 Uiso
C13_2 C 0.7167(32) 0.1286(6) 0.5899(12) 0.0153 Uiso
C14_2 C 0.6112(34) 0.1881(6) 0.5320(15) 0.0153 Uiso
C15_2 C 0.8928(30) 0.3120(6) 0.7587(12) 0.0153 Uiso
H7_2 H 0.6876 0.0868 0.5408 0.0153 Uiso
H8_2 H 0.4748 0.1851 0.4521 0.0153 Uiso
O2_2 O 0.9468(19) 0.6850(4) 0.1386(8) 0.0153 Uiso
C6_2 C 0.8095(32) 0.8208(7) 0.1349(13) 0.0153 Uiso
loop_
_geom_bond_atom_site_label_1
_geom_bond_atom_site_label_2
_geom_bond_site_symmetry_1
_geom_bond_site_symmetry_2
O3 C6 1_555 1_555
O4 C6 1_555 1_555
Cu6 O3 1_555 1_555
O4 Cu6 1_555 1_555
Cu1 O1 1_555 1_555
O1 C5 1_555 1_555
N1 Cu1 1_555 1_555
N2 C2 1_555 1_555
C1 N1 1_555 1_555
C2 C1 1_555 1_555
C3 N2 1_555 1_555
C4 N1 1_555 1_555
C5 C1 1_555 1_555
H1 C3 1_555 1_555
H3 C7 1_555 1_555
C3 C4 1_555 1_555
C8 N3 1_555 1_555
H4 C8 1_555 1_555
H6 C10 1_555 1_555
N4 C10 1_555 1_555
H5 C9 1_555 1_555
O5 Cu2 1_555 1_555
N5 Cu2 1_555 1_555
N6 C12 1_555 1_555
C11 N5 1_555 1_555
C12 C11 1_555 1_555
C13 N6 1_555 1_555
C14 N5 1_555 1_555
C15 O5 1_555 1_555
H7 C13 1_555 1_555
C11 C15 1_555 1_555
C13 C14 1_555 1_555
O7 C16 1_555 1_555
O8 C16 1_555 1_555
Cu4 O7 1_555 1_555
O8 Cu4 1_555 1_555
O10 C16_2 1_555 1_555
O14 C16_2 1_555 1_555
Cu4 O1_2 1_555 1_555
O1_2 C5_2 1_555 1_555
N1_2 Cu4 1_555 1_555
N2_2 C2_2 1_555 1_555
N3_2 Cu4 1_555 1_555
C1_2 N1_2 1_555 1_555
C2_2 C1_2 1_555 1_555
C3_2 N2_2 1_555 1_555
C4_2 N1_2 1_555 1_555
C5_2 C1_2 1_555 1_555
C7_2 N3_2 1_555 1_555
C8_2 N3_2 1_555 1_555
H1_2 C3_2 1_555 1_555
H2_2 C4_2 1_555 1_555
H3_2 C7_2 1_555 1_555
H4_2 C8_2 1_555 1_555
N4_2 C9_2 1_555 1_555
C9_2 C8_2 1_555 1_555
C10_2 C7_2 1_555 1_555
H5_2 C9_2 1_555 1_555
H6_2 C10_2 1_555 1_555
Cu6 N4_2 1_555 1_555
O5_2 Cu6 1_555 1_555
N5_2 Cu6 1_555 1_555
N6_2 C12_2 1_555 1_555
C11_2 N5_2 1_555 1_555
C12_2 C11_2 1_555 1_555
C13_2 N6_2 1_555 1_555
C14_2 N5_2 1_555 1_555
C15_2 O5_2 1_555 1_555
H7_2 C13_2 1_555 1_555
H8_2 C14_2 1_555 1_555
C3_2 C4_2 1_555 1_555
N4_2 C10_2 1_555 1_555
C11_2 C15_2 1_555 1_555
C13_2 C14_2 1_555 1_555
O9 C6_2 1_555 1_555
O12 C6_2 1_555 1_555

#END
