
###############################################################################
#
# This file contains modified crystal structure data generated from the
# MOF subset of the Cambridge Structural Database (CSD) v543 
# hosted by the Cambridge Crystallographic Data Centre (CCDC).
#
# This work is licensed under the Creative Commons
# Attribution-NonCommercial-ShareAlike 4.0 International License.
# To view a copy of this license, visit
# http://creativecommons.org/licenses/by-nc-sa/4.0/
# or send a letter to
# Creative Commons, PO Box 1866, Mountain View, CA 94042, USA.
#
# CIF created using the CSD Python API on 29 September 2022
# The structure has been converted into the P1 space group
# The structure has a 3D framework
# The original CSD entry YUZPUH is in the triclinic crystal system
# The framework has been calculated to contain at least 10.0% void space
# The void calculation uses a probe of radius 1.32A, grid spacing 0.4
#
###############################################################################

data_YUZPUH
_chemical_formula_moiety         '(C36 H20 N10 O8 Zn2)n'
_symmetry_cell_setting           triclinic
_symmetry_space_group_name_H-M   'P 1'
_symmetry_Int_Tables_number      1
_space_group_name_Hall           'P 1'
loop_
_symmetry_equiv_pos_site_id
_symmetry_equiv_pos_as_xyz
1 x,y,z
_cell_length_a                   10.1453(3)
_cell_length_b                   10.7589(4)
_cell_length_c                   11.7728(3)
_cell_angle_alpha                106.594(3)
_cell_angle_beta                 102.305(2)
_cell_angle_gamma                115.258(3)
_cell_volume                     1027.23
loop_
_atom_site_label
_atom_site_type_symbol
_atom_site_fract_x
_atom_site_fract_y
_atom_site_fract_z
Zn4 Zn 0.09357(4) 0.71620(4) 0.64415(3)
O1 O 0.1844(2) 0.6606(2) 0.52170(16)
O2 O 0.8997(2) 0.6817(2) 0.52331(16)
O3 O 0.3719(2) 0.7259(2) 0.70276(16)
O4 O 0.8740(2) 0.7654(2) 0.70705(16)
C1 C 0.5985(3) 0.6098(3) 0.3802(2)
H1 H 0.658734 0.590419 0.336408
C2 C 0.4473(3) 0.5724(3) 0.3112(2)
C4 C 0.3788(3) 0.4989(3) 0.1689(2)
C5 C 0.4180(3) 0.6644(3) 0.5113(2)
C6 C 0.3575(3) 0.6016(3) 0.3780(2)
H3 H 0.256935 0.578957 0.332914
C7 C 0.2998(3) 0.5500(3) 0.1015(2)
H4 H 0.293186 0.632434 0.145904
C8 C 0.5698(3) 0.7018(3) 0.5787(2)
H5 H 0.610526 0.744636 0.668088
C9 C 0.8221(3) 0.7118(3) 0.5884(2)
C13 C 0.6609(3) 0.6758(3) 0.5137(2)
C14 C 0.3197(3) 0.6854(3) 0.5856(2)
C15 C 0.3904(3) 0.3764(3) 0.1013(2)
H7 H 0.446178 0.343214 0.144866
N7 N 0.2373(3) 0.9417(2) 0.77220(19)
N8 N 0.0781(3) 0.6214(3) 0.77008(19)
N2 N 0.1581(2) 0.5405(3) 0.90368(19)
N3 N 0.3157(2) 0.1717(3) 0.90069(19)
N5 N 0.1166(3) 0.6359(3) 0.9695(2)
N6 N 0.4395(3) 0.1521(3) 0.9422(2)
C3 C 0.1338(3) 0.5333(3) 0.7859(2)
H2 H 0.152885 0.475317 0.723818
C10 C 0.3170(3) 0.3052(3) 0.9681(2)
C11 C 0.2368(3) 0.3543(3) 0.8990(2)
H6 H 0.189129 0.305788 0.809748
C12 C 0.2306(3) 0.4786(3) 0.9685(2)
C16 C 0.0697(3) 0.6809(3) 0.8852(2)
H8 H 0.033728 0.747782 0.902486
C17 C 0.1974(3) 0.0449(3) 0.8006(2)
H9 H 0.100691 0.031140 0.757001
C18 C 0.3854(3) 0.0125(3) 0.8620(2)
H10 H 0.443783 0.965633 0.866229
O5 O 0.1003(2) 0.3183(2) 0.47669(16)
N1 N 0.7627(3) 0.0583(2) 0.22780(19)
H10_2 H 0.556217 0.034367 0.133771
Zn2 Zn 0.90643(4) 0.28380(4) 0.35585(3)
N2_2 N 0.8419(2) 0.4595(3) 0.09632(19)
N3_2 N 0.6843(2) 0.8283(3) 0.09931(19)
N4 N 0.9219(3) 0.3786(3) 0.22992(19)
N5_2 N 0.8834(3) 0.3641(3) 0.0305(2)
N6_2 N 0.5605(3) 0.8479(3) 0.0578(2)
C3_2 C 0.8662(3) 0.4667(3) 0.2141(2)
H2_2 H 0.847115 0.524683 0.276182
C10_2 C 0.6830(3) 0.6948(3) 0.0319(2)
C11_2 C 0.7632(3) 0.6457(3) 0.1010(2)
H6_2 H 0.810871 0.694212 0.190252
C12_2 C 0.7694(3) 0.5214(3) 0.0315(2)
C16_2 C 0.9303(3) 0.3191(3) 0.1148(2)
H8_2 H 0.966272 0.252218 0.097514
C17_2 C 0.8026(3) 0.9551(3) 0.1994(2)
H9_2 H 0.899309 0.968860 0.242999
C18_2 C 0.6146(3) 0.9875(3) 0.1380(2)
O1_2 O 0.8156(2) 0.3394(2) 0.47830(16)
O3_2 O 0.6281(2) 0.2741(2) 0.29724(16)
O4_2 O 0.1260(2) 0.2346(2) 0.29295(16)
C1_2 C 0.4015(3) 0.3902(3) 0.6198(2)
H1_2 H 0.341266 0.409581 0.663592
C2_2 C 0.5527(3) 0.4276(3) 0.6888(2)
C4_2 C 0.6212(3) 0.5011(3) 0.8311(2)
C5_2 C 0.5820(3) 0.3356(3) 0.4887(2)
C6_2 C 0.6425(3) 0.3984(3) 0.6220(2)
H3_2 H 0.743065 0.421043 0.667086
C7_2 C 0.7002(3) 0.4500(3) 0.8985(2)
H4_2 H 0.706814 0.367566 0.854096
C8_2 C 0.4302(3) 0.2982(3) 0.4213(2)
H5_2 H 0.389474 0.255364 0.331912
C9_2 C 0.1779(3) 0.2882(3) 0.4116(2)
C13_2 C 0.3391(3) 0.3242(3) 0.4863(2)
C14_2 C 0.6803(3) 0.3146(3) 0.4144(2)
C15_2 C 0.6096(3) 0.6236(3) 0.8987(2)
H7_2 H 0.553822 0.656786 0.855134
loop_
_geom_bond_atom_site_label_1
_geom_bond_atom_site_label_2
_geom_bond_site_symmetry_1
_geom_bond_site_symmetry_2
Zn4 O1 1_555 1_555
O1 C14 1_555 1_555
O2 C9 1_555 1_555
O3 C14 1_555 1_555
O4 C9 1_555 1_555
C1 H1 1_555 1_555
C2 C1 1_555 1_555
C4 C2 1_555 1_555
C5 C6 1_555 1_555
C6 C2 1_555 1_555
H3 C6 1_555 1_555
C7 C4 1_555 1_555
H4 C7 1_555 1_555
C8 C5 1_555 1_555
H5 C8 1_555 1_555
C9 C13 1_555 1_555
C13 C1 1_555 1_555
C14 C5 1_555 1_555
C15 C4 1_555 1_555
H7 C15 1_555 1_555
N7 Zn4 1_555 1_555
N8 Zn4 1_555 1_555
C8 C13 1_555 1_555
N2 N5 1_555 1_555
N3 N6 1_555 1_555
N8 C3 1_555 1_555
N5 C16 1_555 1_555
N6 C18 1_555 1_555
C3 N2 1_555 1_555
H2 C3 1_555 1_555
C10 N3 1_555 1_555
C11 C10 1_555 1_555
H6 C11 1_555 1_555
C12 N2 1_555 1_555
C16 N8 1_555 1_555
H8 C16 1_555 1_555
C17 N3 1_555 1_555
H9 C17 1_555 1_555
C11 C12 1_555 1_555
Zn2 N1 1_555 1_555
N2_2 N5_2 1_555 1_555
N3_2 N6_2 1_555 1_555
N4 C3_2 1_555 1_555
N5_2 C16_2 1_555 1_555
N6_2 C18_2 1_555 1_555
C3_2 N2_2 1_555 1_555
H2_2 C3_2 1_555 1_555
C10_2 N3_2 1_555 1_555
C11_2 C10_2 1_555 1_555
H6_2 C11_2 1_555 1_555
C12_2 N2_2 1_555 1_555
C16_2 N4 1_555 1_555
H8_2 C16_2 1_555 1_555
C17_2 N3_2 1_555 1_555
H9_2 C17_2 1_555 1_555
Zn2 N4 1_555 1_555
C11_2 C12_2 1_555 1_555
Zn2 O1_2 1_555 1_555
O1_2 C14_2 1_555 1_555
O5 C9_2 1_555 1_555
O3_2 C14_2 1_555 1_555
O4_2 C9_2 1_555 1_555
C1_2 H1_2 1_555 1_555
C2_2 C1_2 1_555 1_555
C4_2 C2_2 1_555 1_555
C5_2 C6_2 1_555 1_555
C6_2 C2_2 1_555 1_555
H3_2 C6_2 1_555 1_555
C7_2 C4_2 1_555 1_555
H4_2 C7_2 1_555 1_555
C8_2 C5_2 1_555 1_555
H5_2 C8_2 1_555 1_555
C9_2 C13_2 1_555 1_555
C13_2 C1_2 1_555 1_555
C14_2 C5_2 1_555 1_555
C15_2 C4_2 1_555 1_555
H7_2 C15_2 1_555 1_555
C8_2 C13_2 1_555 1_555

#END
