
###############################################################################
#
# This file contains modified crystal structure data generated from the
# MOF subset of the Cambridge Structural Database (CSD) v543 
# hosted by the Cambridge Crystallographic Data Centre (CCDC).
#
# This work is licensed under the Creative Commons
# Attribution-NonCommercial-ShareAlike 4.0 International License.
# To view a copy of this license, visit
# http://creativecommons.org/licenses/by-nc-sa/4.0/
# or send a letter to
# Creative Commons, PO Box 1866, Mountain View, CA 94042, USA.
#
# CIF created using the CSD Python API on 29 September 2022
# The structure has been converted into the P1 space group
# The structure has a 3D framework
# The original CSD entry YUZRES is in the triclinic crystal system
# The framework has been calculated to contain at least 10.0% void space
# The void calculation uses a probe of radius 1.32A, grid spacing 0.4
#
###############################################################################

data_YUZRES
_chemical_formula_moiety         '(C100 H78 Co7 N8 O26)n'
_symmetry_cell_setting           triclinic
_symmetry_space_group_name_H-M   'P 1'
_symmetry_Int_Tables_number      1
_space_group_name_Hall           'P 1'
loop_
_symmetry_equiv_pos_site_id
_symmetry_equiv_pos_as_xyz
1 x,y,z
_cell_length_a                   11.5784(7)
_cell_length_b                   15.3081(12)
_cell_length_c                   19.2580(11)
_cell_angle_alpha                70.388(6)
_cell_angle_beta                 76.659(5)
_cell_angle_gamma                83.048(6)
_cell_volume                     3125.02
loop_
_atom_site_label
_atom_site_type_symbol
_atom_site_fract_x
_atom_site_fract_y
_atom_site_fract_z
C54 C 0.0950(5) 0.4329(4) 0.0084(3)
H41 H 0.1575 0.3884 0.0134
Co8 Co 0.5000 0.5000 0.0000
C51 C 0.2410(5) 0.5579(4) 0.9777(3)
C52 C 0.1157(5) 0.5273(4) 0.9892(3)
C53 C 0.0215(5) 0.5932(4) 0.9802(3)
H40 H 0.0363 0.6558 0.9662
O14 O 0.3197(3) 0.4969(3) 0.9962(2)
O15 O 0.2513(3) 0.6439(3) 0.9499(2)
Co8_2 Co 0.5000 0.5000 1.0000
Co10 Co 0.38668(7) 0.72845(6) 0.91772(5)
C12 C 0.4165(5) 0.0233(4) 0.1453(3)
C15 C 0.5837(5) 0.0834(4) 0.0741(4)
H14 H 0.6581 0.0897 0.0422
C16 C 0.4206(5) 0.1130(4) 0.1447(3)
C17 C 0.3301(5) 0.1684(4) 0.1810(3)
C18 C 0.2951(5) 0.2573(4) 0.1429(3)
H15 H 0.3298 0.2841 0.0925
C19 C 0.2080(5) 0.3079(4) 0.1791(3)
H16 H 0.1846 0.3676 0.1521
C20 C 0.1556(5) 0.2708(4) 0.2546(3)
C21 C 0.1925(6) 0.1812(4) 0.2935(4)
H17 H 0.1596 0.1554 0.3443
C22 C 0.2765(6) 0.1301(4) 0.2582(4)
H18 H 0.2984 0.0699 0.2850
C23 C 0.0672(5) 0.3266(4) 0.2931(3)
C27 C 0.0594(5) 0.3146(4) 0.3696(3)
H22 H 0.1108 0.2721 0.3964
C36 C 0.7590(5) 0.4421(4) 0.0223(3)
C37 C 0.8843(5) 0.4727(4) 0.0108(3)
C38 C 0.9785(5) 0.4068(4) 0.0198(3)
H27 H 0.9637 0.3442 0.0338
Co2 Co 0.61332(7) 0.27155(6) 0.08228(5)
N1 N 0.5212(4) 0.0051(3) 0.0995(3)
N2 N 0.5262(4) 0.1491(3) 0.1003(3)
O9 O 0.6803(3) 0.5031(3) 0.0038(2)
O10 O 0.7487(3) 0.3561(3) 0.0501(2)
C50 C 0.7886(9) 0.2184(7) 0.1946(5)
H36 H 0.7777 0.2848 0.1796
H37 H 0.8719 0.2013 0.1859
H38 H 0.7545 0.1925 0.2472
O13 O 0.7285(4) 0.1817(4) 0.1496(3)
H39 H 0.7481 0.1213 0.1480
C93 C 0.4682(5) 0.3878(4) 0.1702(3)
C94 C 0.4164(5) 0.4015(4) 0.2465(3)
C95 C 0.3141(5) 0.4552(4) 0.2571(3)
H75 H 0.2744 0.4821 0.2176
C96 C 0.2690(4) 0.4700(4) 0.3259(3)
H76 H 0.1992 0.5060 0.3326
C97 C 0.3302(4) 0.4299(4) 0.3851(3)
C98 C 0.4345(5) 0.3751(4) 0.3741(3)
H77 H 0.4758 0.3494 0.4129
C99 C 0.4762(5) 0.3589(4) 0.3070(3)
H78 H 0.5435 0.3202 0.3009
C100 C 0.2883(4) 0.4517(3) 0.4575(3)
O23 O 0.4455(3) 0.4510(2) 0.11379(19)
O24 O 0.5318(3) 0.3134(3) 0.1714(2)
O25 O 0.3556(3) 0.4223(2) 0.5060(2)
O26 O 0.1933(3) 0.4965(2) 0.47057(19)
Co16 Co 0.23267(7) 0.49200(6) 0.57823(4)
Co19 Co 0.5000 0.5000 0.5000
O27 O 0.4772(3) 0.6436(2) 0.00169(18)
C28 C 0.5783(4) 0.3193(3) 0.9482(3)
C29 C 0.5353(4) 0.3428(3) 0.8766(3)
C30 C 0.6058(4) 0.3164(3) 0.8176(3)
H23 H 0.6764 0.2813 0.8236
C31 C 0.5687(5) 0.3438(3) 0.7486(3)
H24 H 0.6167 0.3299 0.7074
C32 C 0.4599(4) 0.3918(3) 0.7422(3)
C33 C 0.3866(4) 0.4129(3) 0.8036(3)
H25 H 0.3122 0.4425 0.7996
C34 C 0.4263(4) 0.3892(3) 0.8709(3)
H26 H 0.3795 0.4046 0.9117
C35 C 0.4217(5) 0.4235(4) 0.6677(3)
C39 C 0.9050(5) 0.5671(4) 0.9916(3)
H28 H 0.8425 0.6116 0.9866
C40 C 0.5318(5) 0.6122(4) 0.8298(3)
C41 C 0.5836(5) 0.5985(4) 0.7535(3)
C42 C 0.6859(5) 0.5448(4) 0.7429(3)
H29 H 0.7256 0.5179 0.7824
C43 C 0.7310(4) 0.5300(4) 0.6741(3)
H30 H 0.8008 0.4940 0.6674
C44 C 0.6698(4) 0.5701(4) 0.6149(3)
C45 C 0.5655(5) 0.6249(4) 0.6259(3)
H31 H 0.5242 0.6506 0.5871
C46 C 0.5238(5) 0.6411(4) 0.6930(3)
H32 H 0.4565 0.6798 0.6991
C47 C 0.7117(4) 0.5483(3) 0.5425(3)
O1 O 0.5228(3) 0.3564(2) 0.99831(18)
O2 O 0.6646(3) 0.2628(2) 0.9620(2)
O3 O 0.3116(3) 0.4441(3) 0.66918(19)
O4 O 0.5026(3) 0.4288(2) 0.60962(19)
O5 O 0.5545(3) 0.5490(2) 0.88621(19)
O6 O 0.4682(3) 0.6866(3) 0.8286(2)
O7 O 0.6444(3) 0.5777(2) 0.4940(2)
O8 O 0.8067(3) 0.5035(2) 0.52943(19)
Co13 Co 0.76733(7) 0.50800(6) 0.42177(4)
C24 C 0.9894(5) 0.3909(4) 0.2569(3)
H19 H 0.9911 0.4004 0.2064
C25 C 0.9076(5) 0.4421(5) 0.2954(3)
H20 H 0.8585 0.4873 0.2688
C26 C 0.9745(5) 0.3664(4) 0.4049(3)
H21 H 0.9708 0.3578 0.4555
N3 N 0.8967(4) 0.4290(3) 0.3693(2)
C1 C 0.8642(5) 0.6953(4) 0.3118(3)
H1 H 0.7927 0.7016 0.2959
C2 C 0.9465(5) 0.7652(4) 0.2731(3)
H2 H 0.9284 0.8165 0.2339
C5 C 0.9868(4) 0.6140(4) 0.3895(3)
C48 C 0.6636(5) 0.3229(4) 0.5152(3)
C49 C 0.5660(6) 0.2562(5) 0.5539(4)
H33 H 0.5722 0.2111 0.5284
H34 H 0.4904 0.2896 0.5528
H35 H 0.5731 0.2253 0.6052
N4 N 0.8823(4) 0.6209(3) 0.3694(2)
O11 O 0.6407(3) 0.4080(2) 0.47417(19)
O12 O 0.7665(4) 0.2944(3) 0.5251(3)
C55 C 0.1358(5) 0.3047(4) 0.6882(3)
H42 H 0.2073 0.2984 0.7041
C56 C 0.0535(5) 0.2348(4) 0.7269(3)
H43 H 0.0716 0.1835 0.7661
C59 C 0.0132(4) 0.3860(4) 0.6105(3)
C90 C 0.3364(5) 0.6771(4) 0.4848(3)
C91 C 0.4340(6) 0.7438(5) 0.4461(4)
H68 H 0.4278 0.7889 0.4716
H69 H 0.5096 0.7104 0.4472
H70 H 0.4269 0.7747 0.3948
N8 N 0.1177(4) 0.3791(3) 0.6306(2)
O20 O 0.3593(3) 0.5920(2) 0.52583(19)
O21 O 0.2335(4) 0.7056(3) 0.4749(3)
N10 N 0.1033(4) 0.5710(3) 0.6307(2)
O29 O 0.6884(3) 0.5559(3) 0.33082(19)
O31 O 0.4974(3) 0.5712(2) 0.39038(19)
C78 C 0.0106(5) 0.6091(4) 0.7431(3)
H60 H 0.0089 0.5996 0.7936
C79 C 0.0924(5) 0.5579(5) 0.7046(3)
H61 H 0.1415 0.5127 0.7312
C80 C 0.0255(5) 0.6336(4) 0.5951(3)
H62 H 0.0292 0.6422 0.5445
C82 C 0.4217(4) 0.6807(3) 0.0518(3)
C83 C 0.4647(4) 0.6572(3) 0.1234(3)
C84 C 0.3942(4) 0.6836(3) 0.1824(3)
H64 H 0.3236 0.7187 0.1764
C85 C 0.4313(5) 0.6562(3) 0.2514(3)
H65 H 0.3833 0.6701 0.2926
C86 C 0.5401(4) 0.6082(3) 0.2578(3)
C87 C 0.6134(4) 0.5871(3) 0.1964(3)
H66 H 0.6878 0.5575 0.2004
C88 C 0.5737(4) 0.6108(3) 0.1291(3)
H67 H 0.6205 0.5954 0.0883
C89 C 0.5783(5) 0.5765(4) 0.3323(3)
O17 O 0.3354(3) 0.7372(2) 0.0380(2)
C66 C 0.5835(5) 0.9767(4) 0.8547(3)
C69 C 0.4163(5) 0.9166(4) 0.9259(4)
H55 H 0.3419 0.9103 0.9578
C70 C 0.5794(5) 0.8870(4) 0.8553(3)
C71 C 0.6699(5) 0.8316(4) 0.8190(3)
C72 C 0.7049(5) 0.7427(4) 0.8571(3)
H56 H 0.6702 0.7159 0.9075
C73 C 0.7920(5) 0.6921(4) 0.8209(3)
H57 H 0.8154 0.6324 0.8479
C74 C 0.8444(5) 0.7292(4) 0.7454(3)
C75 C 0.8075(6) 0.8188(4) 0.7065(4)
H58 H 0.8404 0.8446 0.6557
C76 C 0.7235(6) 0.8699(4) 0.7418(4)
H59 H 0.7016 0.9301 0.7150
C77 C 0.9328(5) 0.6734(4) 0.7069(3)
C81 C 0.9406(5) 0.6854(4) 0.6304(3)
H63 H 0.8892 0.7279 0.6036
N5 N 0.4788(4) 0.9949(3) 0.9005(3)
N6 N 0.4738(4) 0.8509(3) 0.8997(3)
C92 C 0.2114(9) 0.7816(7) 0.8054(5)
H71 H 0.2223 0.7152 0.8204
H72 H 0.1281 0.7987 0.8141
H73 H 0.2455 0.8075 0.7528
O22 O 0.2715(4) 0.8183(4) 0.8504(3)
H74 H 0.2519 0.8787 0.8520
C3 C 0.0542(5) 0.7561(4) 0.2946(3)
C4 C 0.0739(5) 0.6794(4) 0.3549(3)
H3 H 0.1443 0.6715 0.3721
H4 H 0.0026 0.5623 0.4291
C6 C 0.1470(5) 0.8251(4) 0.2559(3)
C7 C 0.1548(5) 0.8775(4) 0.1804(3)
H5 H 0.1013 0.8701 0.1537
C8 C 0.2443(5) 0.9416(4) 0.1451(3)
H6 H 0.2501 0.9759 0.0945
C9 C 0.3226(5) 0.9545(4) 0.1833(3)
C10 C 0.3159(5) 0.9019(4) 0.2573(3)
H7 H 0.3715 0.9089 0.2828
C11 C 0.2274(5) 0.8380(4) 0.2953(3)
H8 H 0.2221 0.8046 0.3461
C13 C 0.5623(6) 0.9161(4) 0.0856(4)
H9 H 0.6165 0.9282 0.0372
H10 H 0.4946 0.8860 0.0836
C14 C 0.6235(6) 0.8522(5) 0.1453(5)
H11 H 0.6852 0.8841 0.1513
H12 H 0.6575 0.7989 0.1309
H13 H 0.5670 0.8327 0.1920
C57 C 0.9458(5) 0.2439(4) 0.7054(3)
C58 C 0.9261(5) 0.3206(4) 0.6451(3)
H44 H 0.8557 0.3285 0.6279
H45 H 0.9974 0.4377 0.5709
C60 C 0.8530(5) 0.1749(4) 0.7441(3)
C61 C 0.8452(5) 0.1225(4) 0.8196(3)
H46 H 0.8987 0.1299 0.8463
C62 C 0.7557(5) 0.0584(4) 0.8549(3)
H47 H 0.7499 0.0241 0.9055
C63 C 0.6774(5) 0.0455(4) 0.8167(3)
C64 C 0.6841(5) 0.0981(4) 0.7427(3)
H48 H 0.6285 0.0911 0.7172
C65 C 0.7726(5) 0.1620(4) 0.7047(3)
H49 H 0.7779 0.1954 0.6539
C67 C 0.4377(6) 0.0839(4) 0.9144(4)
H50 H 0.3835 0.0718 0.9628
H51 H 0.5054 0.1140 0.9164
C68 C 0.3765(6) 0.1478(5) 0.8547(5)
H52 H 0.3148 0.1159 0.8487
H53 H 0.3425 0.2011 0.8691
H54 H 0.4330 0.1673 0.8080
loop_
_geom_bond_atom_site_label_1
_geom_bond_atom_site_label_2
_geom_bond_site_symmetry_1
_geom_bond_site_symmetry_2
H41 C54 1_555 1_555
C51 C52 1_555 1_555
C52 C53 1_555 1_555
H40 C53 1_555 1_555
O14 C51 1_555 1_555
O15 C51 1_555 1_555
Co8_2 O14 1_555 1_555
Co10 O15 1_555 1_555
C15 H14 1_555 1_555
C16 C12 1_555 1_555
C17 C16 1_555 1_555
C18 C17 1_555 1_555
H15 C18 1_555 1_555
C19 C18 1_555 1_555
H16 C19 1_555 1_555
C20 C19 1_555 1_555
C21 C20 1_555 1_555
H17 C21 1_555 1_555
C22 C17 1_555 1_555
H18 C22 1_555 1_555
C23 C20 1_555 1_555
C27 C23 1_555 1_555
H22 C27 1_555 1_555
C36 C37 1_555 1_555
C37 C38 1_555 1_555
C38 H27 1_555 1_555
Co2 N2 1_555 1_555
N1 C12 1_555 1_555
N2 C15 1_555 1_555
O9 C36 1_555 1_555
O10 C36 1_555 1_555
C50 H36 1_555 1_555
H37 C50 1_555 1_555
H38 C50 1_555 1_555
O13 Co2 1_555 1_555
H39 O13 1_555 1_555
C93 C94 1_555 1_555
C94 C95 1_555 1_555
C95 H75 1_555 1_555
C96 C95 1_555 1_555
H76 C96 1_555 1_555
C97 C96 1_555 1_555
C98 C97 1_555 1_555
H77 C98 1_555 1_555
C99 C94 1_555 1_555
H78 C99 1_555 1_555
C100 C97 1_555 1_555
O23 Co8 1_555 1_555
O24 Co2 1_555 1_555
O25 C100 1_555 1_555
O26 C100 1_555 1_555
Co16 O25 1_555 1_555
Co19 O25 1_555 1_555
O27 Co8 1_555 1_555
C15 N1 1_555 1_555
C16 N2 1_555 1_555
C21 C22 1_555 1_555
Co8 O9 1_555 1_555
Co2 O10 1_555 1_555
C50 O13 1_555 1_555
C93 O23 1_555 1_555
C93 O24 1_555 1_555
C98 C99 1_555 1_555
O26 Co16 1_555 1_555
C28 C29 1_555 1_555
C29 C30 1_555 1_555
C30 H23 1_555 1_555
C31 C30 1_555 1_555
H24 C31 1_555 1_555
C32 C31 1_555 1_555
C33 C32 1_555 1_555
H25 C33 1_555 1_555
C34 C29 1_555 1_555
H26 C34 1_555 1_555
C35 C32 1_555 1_555
H28 C39 1_555 1_555
C40 C41 1_555 1_555
C41 C42 1_555 1_555
C42 H29 1_555 1_555
C43 C42 1_555 1_555
H30 C43 1_555 1_555
C44 C43 1_555 1_555
C45 C44 1_555 1_555
H31 C45 1_555 1_555
C46 C41 1_555 1_555
H32 C46 1_555 1_555
C47 C44 1_555 1_555
Co8_2 O1 1_555 1_555
O1 C28 1_555 1_555
O2 C28 1_555 1_555
O3 C35 1_555 1_555
O4 C35 1_555 1_555
O5 C40 1_555 1_555
O6 C40 1_555 1_555
O7 C47 1_555 1_555
O8 C47 1_555 1_555
Co10 O6 1_555 1_555
Co13 O7 1_555 1_555
Co16 O3 1_555 1_555
Co19 O4 1_555 1_555
C33 C34 1_555 1_555
C45 C46 1_555 1_555
Co8_2 O5 1_555 1_555
O7 Co19 1_555 1_555
O8 Co13 1_555 1_555
H19 C24 1_555 1_555
C25 C24 1_555 1_555
H20 C25 1_555 1_555
C26 H21 1_555 1_555
N3 C25 1_555 1_555
Co13 N3 1_555 1_555
C26 N3 1_555 1_555
C1 H1 1_555 1_555
C2 C1 1_555 1_555
H2 C2 1_555 1_555
C48 C49 1_555 1_555
C49 H33 1_555 1_555
H34 C49 1_555 1_555
H35 C49 1_555 1_555
Co13 N4 1_555 1_555
Co19 O11 1_555 1_555
N4 C1 1_555 1_555
O11 C48 1_555 1_555
O12 C48 1_555 1_555
C55 H42 1_555 1_555
C56 C55 1_555 1_555
H43 C56 1_555 1_555
C90 C91 1_555 1_555
C91 H68 1_555 1_555
H69 C91 1_555 1_555
H70 C91 1_555 1_555
Co16 N8 1_555 1_555
N8 C55 1_555 1_555
O20 Co19 1_555 1_555
O21 C90 1_555 1_555
N10 Co16 1_555 1_555
O29 Co13 1_555 1_555
O31 Co19 1_555 1_555
C5 N4 1_555 1_555
Co13 O11 1_555 1_555
C59 N8 1_555 1_555
C90 O20 1_555 1_555
Co16 O20 1_555 1_555
H60 C78 1_555 1_555
C79 C78 1_555 1_555
H61 C79 1_555 1_555
C80 H62 1_555 1_555
N10 C79 1_555 1_555
C80 N10 1_555 1_555
C82 C83 1_555 1_555
C83 C84 1_555 1_555
C84 H64 1_555 1_555
C85 C84 1_555 1_555
H65 C85 1_555 1_555
C86 C85 1_555 1_555
C87 C86 1_555 1_555
H66 C87 1_555 1_555
C88 C83 1_555 1_555
H67 C88 1_555 1_555
C89 C86 1_555 1_555
O27 C82 1_555 1_555
O17 C82 1_555 1_555
O29 C89 1_555 1_555
O31 C89 1_555 1_555
C87 C88 1_555 1_555
C69 H55 1_555 1_555
C70 C66 1_555 1_555
C71 C70 1_555 1_555
C72 C71 1_555 1_555
H56 C72 1_555 1_555
C73 C72 1_555 1_555
H57 C73 1_555 1_555
C74 C73 1_555 1_555
C75 C74 1_555 1_555
H58 C75 1_555 1_555
C76 C71 1_555 1_555
H59 C76 1_555 1_555
C77 C74 1_555 1_555
C81 C77 1_555 1_555
H63 C81 1_555 1_555
Co10 N6 1_555 1_555
N5 C66 1_555 1_555
N6 C69 1_555 1_555
C92 H71 1_555 1_555
H72 C92 1_555 1_555
H73 C92 1_555 1_555
O22 Co10 1_555 1_555
H74 O22 1_555 1_555
C69 N5 1_555 1_555
C70 N6 1_555 1_555
C75 C76 1_555 1_555
C92 O22 1_555 1_555
C4 C3 1_555 1_555
H3 C4 1_555 1_555
C6 C3 1_555 1_555
C7 C6 1_555 1_555
H5 C7 1_555 1_555
C8 C7 1_555 1_555
H6 C8 1_555 1_555
C9 C8 1_555 1_555
C10 C9 1_555 1_555
H7 C10 1_555 1_555
C11 C6 1_555 1_555
H8 C11 1_555 1_555
C13 H9 1_555 1_555
H10 C13 1_555 1_555
C14 C13 1_555 1_555
H11 C14 1_555 1_555
H12 C14 1_555 1_555
H13 C14 1_555 1_555
C10 C11 1_555 1_555
C58 C57 1_555 1_555
H44 C58 1_555 1_555
C60 C57 1_555 1_555
C61 C60 1_555 1_555
H46 C61 1_555 1_555
C62 C61 1_555 1_555
H47 C62 1_555 1_555
C63 C62 1_555 1_555
C64 C63 1_555 1_555
H48 C64 1_555 1_555
C65 C60 1_555 1_555
H49 C65 1_555 1_555
C67 H50 1_555 1_555
H51 C67 1_555 1_555
C68 C67 1_555 1_555
H52 C68 1_555 1_555
H53 C68 1_555 1_555
H54 C68 1_555 1_555
C64 C65 1_555 1_555

#END
