
###############################################################################
#
# This file contains modified crystal structure data generated from the
# MOF subset of the Cambridge Structural Database (CSD) v543 
# hosted by the Cambridge Crystallographic Data Centre (CCDC).
#
# This work is licensed under the Creative Commons
# Attribution-NonCommercial-ShareAlike 4.0 International License.
# To view a copy of this license, visit
# http://creativecommons.org/licenses/by-nc-sa/4.0/
# or send a letter to
# Creative Commons, PO Box 1866, Mountain View, CA 94042, USA.
#
# CIF created using the CSD Python API on 29 September 2022
# The structure has been converted into the P1 space group
# The structure has a 3D framework
# The original CSD entry YUZRIW is in the triclinic crystal system
# The framework has been calculated to contain at least 10.0% void space
# The void calculation uses a probe of radius 1.32A, grid spacing 0.4
#
###############################################################################

data_YUZRIW
_chemical_formula_moiety         '(C98 H72 Co7 N8 O24)n'
_symmetry_cell_setting           triclinic
_symmetry_space_group_name_H-M   'P 1'
_symmetry_Int_Tables_number      1
_space_group_name_Hall           'P 1'
loop_
_symmetry_equiv_pos_site_id
_symmetry_equiv_pos_as_xyz
1 x,y,z
_cell_length_a                   11.6664(6)
_cell_length_b                   14.9859(8)
_cell_length_c                   19.4221(11)
_cell_angle_alpha                75.584(5)
_cell_angle_beta                 75.343(5)
_cell_angle_gamma                87.679(4)
_cell_volume                     3180.74
loop_
_atom_site_label
_atom_site_type_symbol
_atom_site_fract_x
_atom_site_fract_y
_atom_site_fract_z
C53 C 0.0915(2) 0.44060(19) 0.01121(15)
H37 H 0.1524 0.4004 0.0188
Co8 Co 0.5000 0.5000 0.0000
C50 C 0.2350(2) 0.57354(19) 0.98216(14)
C51 C 0.1136(2) 0.53471(19) 0.99167(14)
C52 C 0.0210(2) 0.5942(2) 0.98049(15)
H36 H 0.0348 0.6576 0.9674
O13 O 0.31770(16) 0.51861(13) 0.99067(10)
O14 O 0.24641(15) 0.66088(13) 0.96612(10)
Co8_2 Co 0.5000 0.5000 1.0000
Co10 Co 0.41269(3) 0.70569(2) 0.938351(18)
C12 C 0.4481(2) 0.02062(19) 0.15681(14)
C15 C 0.6105(2) 0.09058(19) 0.08077(15)
H14 H 0.6854 0.1001 0.0486
C16 C 0.4398(2) 0.11449(18) 0.14778(14)
C17 C 0.3402(2) 0.16474(18) 0.18408(15)
C18 C 0.2987(2) 0.24589(19) 0.14586(15)
H15 H 0.3311 0.2678 0.0957
C19 C 0.2097(2) 0.29381(19) 0.18206(15)
H16 H 0.1840 0.3483 0.1559
C20 C 0.1580(2) 0.26252(19) 0.25639(15)
C21 C 0.1966(3) 0.1801(2) 0.29446(16)
H17 H 0.1612 0.1568 0.3441
C22 C 0.2878(3) 0.1323(2) 0.25873(16)
H18 H 0.3141 0.0782 0.2850
C23 C 0.0661(2) 0.31537(19) 0.29678(15)
H19 H -0.0000 0.3824 0.2112
C27 C 0.0506(2) 0.3094(2) 0.37137(15)
H22 H 0.0983 0.2711 0.3973
C36 C 0.7650(2) 0.42646(19) 0.01784(14)
C37 C 0.8864(2) 0.46529(19) 0.00833(14)
C38 C 0.9790(2) 0.4058(2) 0.01951(15)
H27 H 0.9652 0.3424 0.0326
Co2 Co 0.58731(3) 0.29431(2) 0.061649(18)
N1 N 0.5589(2) 0.00758(15) 0.11376(13)
N2 N 0.54179(19) 0.15754(15) 0.09955(12)
O9 O 0.68230(16) 0.48139(13) 0.00933(10)
O10 O 0.75359(15) 0.33912(13) 0.03388(10)
C91 C 0.4621(2) 0.40064(18) 0.16127(14)
C92 C 0.4122(2) 0.40973(18) 0.23829(14)
C93 C 0.3141(2) 0.46358(18) 0.25428(14)
H67 H 0.2775 0.4926 0.2176
C94 C 0.2709(2) 0.47393(18) 0.32501(14)
H68 H 0.2040 0.5088 0.3358
C95 C 0.3258(2) 0.43315(18) 0.37979(14)
C96 C 0.4235(2) 0.37836(18) 0.36376(14)
H69 H 0.4610 0.3505 0.4003
C97 C 0.4650(2) 0.36507(18) 0.29409(14)
H70 H 0.5282 0.3264 0.2843
C98 C 0.2862(2) 0.45311(18) 0.45415(14)
O21 O 0.43015(15) 0.45758(12) 0.11003(9)
O22 O 0.53305(15) 0.33551(12) 0.15309(9)
O23 O 0.34905(15) 0.42455(12) 0.50071(9)
O24 O 0.19506(15) 0.49759(12) 0.47086(9)
Co16 Co 0.23146(3) 0.50037(2) 0.574563(18)
Co19 Co 0.5000 0.5000 0.5000
O25 O 0.50689(15) 0.63941(12) 0.01020(9)
C28 C 0.5435(2) 0.32273(17) 0.93610(14)
C29 C 0.5018(2) 0.34598(18) 0.86821(14)
C30 C 0.5674(2) 0.31808(18) 0.80640(14)
H23 H 0.6334 0.2818 0.8095
C31 C 0.5345(2) 0.34430(18) 0.74099(14)
H24 H 0.5795 0.3271 0.6997
C32 C 0.4334(2) 0.39679(18) 0.73671(14)
C33 C 0.3658(2) 0.42115(18) 0.79897(14)
H25 H 0.2968 0.4540 0.7968
C34 C 0.4002(2) 0.39702(18) 0.86384(14)
H26 H 0.3554 0.4148 0.9049
C35 C 0.4034(2) 0.43091(18) 0.66372(14)
C39 C 0.9085(2) 0.55940(19) 0.98879(15)
H28 H 0.8476 0.5996 0.9812
C40 C 0.5379(2) 0.59936(18) 0.83873(14)
C41 C 0.5878(2) 0.59027(18) 0.76171(14)
C42 C 0.6859(2) 0.53642(18) 0.74572(14)
H29 H 0.7225 0.5074 0.7824
C43 C 0.7291(2) 0.52607(18) 0.67499(14)
H30 H 0.7960 0.4912 0.6642
C44 C 0.6742(2) 0.56685(18) 0.62021(14)
C45 C 0.5765(2) 0.62164(18) 0.63624(14)
H31 H 0.5390 0.6495 0.5997
C46 C 0.5350(2) 0.63493(18) 0.70591(14)
H32 H 0.4718 0.6736 0.7157
C47 C 0.7138(2) 0.54689(18) 0.54585(14)
O1 O 0.49311(15) 0.36059(12) 0.98980(9)
O2 O 0.62340(15) 0.26681(12) 0.94465(10)
O3 O 0.29819(15) 0.45563(13) 0.66518(9)
O4 O 0.48539(15) 0.43240(12) 0.60715(9)
O5 O 0.56985(15) 0.54242(12) 0.88997(9)
O6 O 0.46695(15) 0.66449(12) 0.84691(9)
O7 O 0.65095(15) 0.57545(12) 0.49929(9)
O8 O 0.80494(15) 0.50241(12) 0.52914(9)
Co13 Co 0.76854(3) 0.49963(2) 0.425437(18)
C24 C 0.9931(3) 0.3754(2) 0.26104(16)
H19_2 H 1.0000 0.3824 0.2112
C25 C 0.9102(3) 0.4244(2) 0.30067(16)
H20 H 0.8629 0.4647 0.2758
C26 C 0.9650(2) 0.36018(19) 0.40683(15)
H21 H 0.9560 0.3544 0.4567
N3 N 0.89404(19) 0.41747(15) 0.37262(12)
C1 C 0.8829(3) 0.6865(2) 0.32584(16)
H1 H 0.8121 0.6922 0.3116
C2 C 0.9693(2) 0.7549(2) 0.29175(17)
H2 H 0.9554 0.8054 0.2561
C5 C 0.9984(2) 0.60803(19) 0.39853(14)
C48 C 0.6434(2) 0.32435(19) 0.51490(15)
C49 C 0.5374(3) 0.2592(2) 0.54497(17)
H33 H 0.5392 0.2195 0.5129
H34 H 0.4661 0.2940 0.5483
H35 H 0.5392 0.2228 0.5929
N4 N 0.89592(19) 0.61247(15) 0.37838(12)
O11 O 0.62902(15) 0.40477(12) 0.47291(9)
O12 O 0.73833(17) 0.29973(14) 0.52874(11)
C54 C 0.1171(3) 0.3135(2) 0.67416(16)
H38 H 0.1879 0.3078 0.6884
C55 C 0.0307(2) 0.2451(2) 0.70825(17)
H39 H 0.0446 0.1946 0.7439
C58 C 0.0016(2) 0.39197(19) 0.60147(14)
C89 C 0.3566(2) 0.67565(19) 0.48510(15)
C90 C 0.4626(3) 0.7408(2) 0.45503(17)
H64 H 0.4608 0.7805 0.4871
H65 H 0.5339 0.7060 0.4517
H66 H 0.4608 0.7772 0.4071
N8 N 0.10408(19) 0.38753(15) 0.62162(12)
O19 O 0.37098(15) 0.59523(12) 0.52709(9)
O20 O 0.26167(17) 0.70027(14) 0.47126(11)
N10 N 0.10596(19) 0.58253(15) 0.62738(12)
O27 O 0.70181(15) 0.54437(13) 0.33482(9)
O29 O 0.51461(15) 0.56760(12) 0.39285(9)
C77 C 0.0069(3) 0.6246(2) 0.73896(16)
H56 H -0.0000 0.6176 0.7888
C78 C 0.0898(3) 0.5756(2) 0.69933(16)
H57 H 0.1371 0.5353 0.7242
C79 C 0.0350(2) 0.63982(19) 0.59317(15)
H58 H 0.0440 0.6456 0.5433
C81 C 0.4565(2) 0.67727(17) 0.06390(14)
C82 C 0.4982(2) 0.65402(18) 0.13179(14)
C83 C 0.4326(2) 0.68192(18) 0.19360(14)
H60 H 0.3666 0.7182 0.1905
C84 C 0.4655(2) 0.65570(18) 0.25901(14)
H61 H 0.4205 0.6729 0.3003
C85 C 0.5666(2) 0.60321(18) 0.26329(14)
C86 C 0.6342(2) 0.57885(18) 0.20103(14)
H62 H 0.7032 0.5460 0.2032
C87 C 0.5998(2) 0.60298(18) 0.13616(14)
H63 H 0.6446 0.5852 0.0951
C88 C 0.5966(2) 0.56909(18) 0.33628(14)
O16 O 0.37660(15) 0.73319(12) 0.05535(10)
C65 C 0.5519(2) 0.97938(19) 0.84319(14)
C68 C 0.3895(2) 0.90942(19) 0.91923(15)
H51 H 0.3146 0.8999 0.9514
C69 C 0.5602(2) 0.88551(18) 0.85222(14)
C70 C 0.6598(2) 0.83526(18) 0.81592(15)
C71 C 0.7013(2) 0.75411(19) 0.85414(15)
H52 H 0.6689 0.7322 0.9043
C72 C 0.7903(2) 0.70619(19) 0.81794(15)
H53 H 0.8160 0.6517 0.8441
C73 C 0.8420(2) 0.73748(19) 0.74361(15)
C74 C 0.8034(3) 0.8199(2) 0.70554(16)
H54 H 0.8388 0.8432 0.6559
C75 C 0.7122(3) 0.8677(2) 0.74127(16)
H55 H 0.6859 0.9218 0.7150
C76 C 0.9339(2) 0.68463(19) 0.70322(15)
H56_2 H 1.0000 0.6176 0.7888
C80 C 0.9494(2) 0.6906(2) 0.62863(15)
H59 H 0.9017 0.7289 0.6027
N5 N 0.4411(2) 0.99242(15) 0.88624(13)
N6 N 0.45821(19) 0.84246(15) 0.90045(12)
C3 C 0.0774(2) 0.74786(19) 0.31094(15)
C4 C 0.0894(2) 0.67257(18) 0.36752(14)
H3 H 0.1581 0.6661 0.3841
H4 H 0.0086 0.5581 0.4358
C6 C 0.1750(2) 0.81586(19) 0.27199(15)
C7 C 0.1836(3) 0.8638(2) 0.19924(16)
H5 H 0.1280 0.8523 0.1754
C8 C 0.2741(3) 0.9280(2) 0.16238(16)
H6 H 0.2782 0.9595 0.1140
C9 C 0.3589(2) 0.94648(18) 0.19612(15)
C10 C 0.3523(2) 0.89684(18) 0.26824(15)
H7 H 0.4098 0.9067 0.2913
C11 C 0.2611(2) 0.83304(19) 0.30592(15)
H8 H 0.2572 0.8014 0.3542
C13 C 0.5826(3) 0.8919(2) 0.04122(19)
H9 H 0.4985 0.8827 0.0507
H10 H 0.6217 0.8358 0.0350
C14 C 0.6104(3) 0.9187(2) 0.10442(17)
H12 H 0.5799 0.8713 0.1490
H13 H 0.6957 0.9229 0.0965
H11 H 0.6095 0.9399 0.9973
H48 H 0.3905 0.0601 0.0027
C56 C 0.9226(2) 0.25214(19) 0.68906(15)
C57 C 0.9106(2) 0.32743(18) 0.63248(14)
H40 H 0.8419 0.3339 0.6159
H41 H 0.9914 0.4419 0.5642
C59 C 0.8250(2) 0.18414(19) 0.72801(15)
C60 C 0.8164(3) 0.1362(2) 0.80076(16)
H42 H 0.8720 0.1477 0.8246
C61 C 0.7259(3) 0.0720(2) 0.83762(16)
H43 H 0.7218 0.0405 0.8860
C62 C 0.6411(2) 0.05352(18) 0.80388(15)
C63 C 0.6477(2) 0.10316(18) 0.73176(15)
H44 H 0.5902 0.0933 0.7087
C64 C 0.7389(2) 0.16696(19) 0.69408(15)
H45 H 0.7428 0.1986 0.6458
C66 C 0.4174(3) 0.1081(2) 0.95878(19)
H46 H 0.5015 0.1173 0.9493
H47 H 0.3783 0.1642 0.9650
C67 C 0.3896(3) 0.0813(2) 0.89558(17)
H49 H 0.4201 0.1287 0.8510
H50 H 0.3043 0.0771 0.9035
loop_
_geom_bond_atom_site_label_1
_geom_bond_atom_site_label_2
_geom_bond_site_symmetry_1
_geom_bond_site_symmetry_2
H37 C53 1_555 1_555
C50 C51 1_555 1_555
C51 C52 1_555 1_555
H36 C52 1_555 1_555
O13 C50 1_555 1_555
O14 C50 1_555 1_555
Co8_2 O13 1_555 1_555
Co10 O14 1_555 1_555
C15 H14 1_555 1_555
C16 C12 1_555 1_555
C17 C16 1_555 1_555
C18 C17 1_555 1_555
H15 C18 1_555 1_555
C19 C18 1_555 1_555
H16 C19 1_555 1_555
C20 C19 1_555 1_555
C21 C20 1_555 1_555
H17 C21 1_555 1_555
C22 C17 1_555 1_555
H18 C22 1_555 1_555
C23 C20 1_555 1_555
C27 C23 1_555 1_555
H22 C27 1_555 1_555
C36 C37 1_555 1_555
C37 C38 1_555 1_555
C38 H27 1_555 1_555
Co2 N2 1_555 1_555
N1 C12 1_555 1_555
N2 C15 1_555 1_555
O9 C36 1_555 1_555
O10 C36 1_555 1_555
C91 C92 1_555 1_555
C92 C93 1_555 1_555
C93 H67 1_555 1_555
C94 C93 1_555 1_555
H68 C94 1_555 1_555
C95 C94 1_555 1_555
C96 C95 1_555 1_555
H69 C96 1_555 1_555
C97 C92 1_555 1_555
H70 C97 1_555 1_555
C98 C95 1_555 1_555
O21 Co8 1_555 1_555
O22 Co2 1_555 1_555
O23 C98 1_555 1_555
O24 C98 1_555 1_555
Co16 O23 1_555 1_555
Co19 O23 1_555 1_555
O25 Co8 1_555 1_555
C15 N1 1_555 1_555
C16 N2 1_555 1_555
C21 C22 1_555 1_555
Co8 O9 1_555 1_555
Co2 O10 1_555 1_555
C91 O21 1_555 1_555
C91 O22 1_555 1_555
C96 C97 1_555 1_555
O24 Co16 1_555 1_555
C28 C29 1_555 1_555
C29 C30 1_555 1_555
C30 H23 1_555 1_555
C31 C30 1_555 1_555
H24 C31 1_555 1_555
C32 C31 1_555 1_555
C33 C32 1_555 1_555
H25 C33 1_555 1_555
C34 C29 1_555 1_555
H26 C34 1_555 1_555
C35 C32 1_555 1_555
H28 C39 1_555 1_555
C40 C41 1_555 1_555
C41 C42 1_555 1_555
C42 H29 1_555 1_555
C43 C42 1_555 1_555
H30 C43 1_555 1_555
C44 C43 1_555 1_555
C45 C44 1_555 1_555
H31 C45 1_555 1_555
C46 C41 1_555 1_555
H32 C46 1_555 1_555
C47 C44 1_555 1_555
Co8_2 O1 1_555 1_555
O1 C28 1_555 1_555
O2 C28 1_555 1_555
O3 C35 1_555 1_555
O4 C35 1_555 1_555
O5 C40 1_555 1_555
O6 C40 1_555 1_555
O7 C47 1_555 1_555
O8 C47 1_555 1_555
Co10 O6 1_555 1_555
Co13 O7 1_555 1_555
Co16 O3 1_555 1_555
Co19 O4 1_555 1_555
C33 C34 1_555 1_555
C45 C46 1_555 1_555
Co8_2 O5 1_555 1_555
O7 Co19 1_555 1_555
O8 Co13 1_555 1_555
H19_2 C24 1_555 1_555
C25 C24 1_555 1_555
H20 C25 1_555 1_555
C26 H21 1_555 1_555
N3 C25 1_555 1_555
Co13 N3 1_555 1_555
C26 N3 1_555 1_555
C1 H1 1_555 1_555
C2 C1 1_555 1_555
H2 C2 1_555 1_555
C48 C49 1_555 1_555
C49 H33 1_555 1_555
H34 C49 1_555 1_555
H35 C49 1_555 1_555
Co13 N4 1_555 1_555
Co19 O11 1_555 1_555
N4 C1 1_555 1_555
O11 C48 1_555 1_555
O12 C48 1_555 1_555
C54 H38 1_555 1_555
C55 C54 1_555 1_555
H39 C55 1_555 1_555
C89 C90 1_555 1_555
C90 H64 1_555 1_555
H65 C90 1_555 1_555
H66 C90 1_555 1_555
Co16 N8 1_555 1_555
N8 C54 1_555 1_555
O19 Co19 1_555 1_555
O20 C89 1_555 1_555
N10 Co16 1_555 1_555
O27 Co13 1_555 1_555
O29 Co19 1_555 1_555
C5 N4 1_555 1_555
Co13 O11 1_555 1_555
C58 N8 1_555 1_555
C89 O19 1_555 1_555
Co16 O19 1_555 1_555
H56 C77 1_555 1_555
C78 C77 1_555 1_555
H57 C78 1_555 1_555
C79 H58 1_555 1_555
N10 C78 1_555 1_555
C79 N10 1_555 1_555
C81 C82 1_555 1_555
C82 C83 1_555 1_555
C83 H60 1_555 1_555
C84 C83 1_555 1_555
H61 C84 1_555 1_555
C85 C84 1_555 1_555
C86 C85 1_555 1_555
H62 C86 1_555 1_555
C87 C82 1_555 1_555
H63 C87 1_555 1_555
C88 C85 1_555 1_555
O25 C81 1_555 1_555
O16 C81 1_555 1_555
O27 C88 1_555 1_555
O29 C88 1_555 1_555
C86 C87 1_555 1_555
C68 H51 1_555 1_555
C69 C65 1_555 1_555
C70 C69 1_555 1_555
C71 C70 1_555 1_555
H52 C71 1_555 1_555
C72 C71 1_555 1_555
H53 C72 1_555 1_555
C73 C72 1_555 1_555
C74 C73 1_555 1_555
H54 C74 1_555 1_555
C75 C70 1_555 1_555
H55 C75 1_555 1_555
C76 C73 1_555 1_555
C80 C76 1_555 1_555
H59 C80 1_555 1_555
Co10 N6 1_555 1_555
N5 C65 1_555 1_555
N6 C68 1_555 1_555
C68 N5 1_555 1_555
C69 N6 1_555 1_555
C74 C75 1_555 1_555
C4 C3 1_555 1_555
H3 C4 1_555 1_555
C6 C3 1_555 1_555
C7 C6 1_555 1_555
H5 C7 1_555 1_555
C8 C7 1_555 1_555
H6 C8 1_555 1_555
C9 C8 1_555 1_555
C10 C9 1_555 1_555
H7 C10 1_555 1_555
C11 C6 1_555 1_555
H8 C11 1_555 1_555
C13 H9 1_555 1_555
H10 C13 1_555 1_555
C14 C13 1_555 1_555
H12 C14 1_555 1_555
H13 C14 1_555 1_555
C10 C11 1_555 1_555
C57 C56 1_555 1_555
H40 C57 1_555 1_555
C59 C56 1_555 1_555
C60 C59 1_555 1_555
H42 C60 1_555 1_555
C61 C60 1_555 1_555
H43 C61 1_555 1_555
C62 C61 1_555 1_555
C63 C62 1_555 1_555
H44 C63 1_555 1_555
C64 C59 1_555 1_555
H45 C64 1_555 1_555
C66 H46 1_555 1_555
H47 C66 1_555 1_555
C67 C66 1_555 1_555
H49 C67 1_555 1_555
H50 C67 1_555 1_555
C63 C64 1_555 1_555

#END
