
###############################################################################
#
# This file contains modified crystal structure data generated from the
# MOF subset of the Cambridge Structural Database (CSD) v543 
# hosted by the Cambridge Crystallographic Data Centre (CCDC).
#
# This work is licensed under the Creative Commons
# Attribution-NonCommercial-ShareAlike 4.0 International License.
# To view a copy of this license, visit
# http://creativecommons.org/licenses/by-nc-sa/4.0/
# or send a letter to
# Creative Commons, PO Box 1866, Mountain View, CA 94042, USA.
#
# CIF created using the CSD Python API on 29 September 2022
# The structure has been converted into the P1 space group
# The structure has a 3D framework
# The original CSD entry ZABBAI is in the monoclinic crystal system
# The framework has been calculated to contain at least 10.0% void space
# The void calculation uses a probe of radius 1.32A, grid spacing 0.4
#
###############################################################################

data_ZABBAI
_chemical_formula_moiety         '(C88 H80 Mn8 N4 O48)n'
_symmetry_cell_setting           triclinic
_symmetry_space_group_name_H-M   'P 1'
_symmetry_Int_Tables_number      1
_space_group_name_Hall           'P 1'
loop_
_symmetry_equiv_pos_site_id
_symmetry_equiv_pos_as_xyz
1 x,y,z
_cell_length_a                   8.0116(4)
_cell_length_b                   10.7378(5)
_cell_length_c                   30.3601(15)
_cell_angle_alpha                90
_cell_angle_beta                 91.0040(10)
_cell_angle_gamma                90
_cell_volume                     2611.39
loop_
_atom_site_label
_atom_site_type_symbol
_atom_site_fract_x
_atom_site_fract_y
_atom_site_fract_z
O17 O 0.2980(4) 0.0380(3) 0.82498(9)
O18 O 0.0767(4) 0.1333(2) 0.79534(8)
O19 O 0.2165(4) 0.3621(3) 0.82530(9)
O20 O 0.3836(4) 0.4123(3) 0.88051(10)
C37 C 0.0348(4) 0.0568(3) 0.90013(11)
C38 C 0.1224(4) 0.1412(3) 0.87398(11)
C39 C 0.1696(4) 0.1029(3) 0.82750(11)
C40 C 0.1778(5) 0.2545(3) 0.89200(11)
C41 C 0.2667(4) 0.3489(3) 0.86425(12)
C42 C 0.1468(6) 0.2825(4) 0.93566(13)
H38 H 0.1868 0.3565 0.9478
C43 C 0.0564(6) 0.2008(4) 0.96143(13)
H39 H 0.0322 0.2212 0.9904
C44 C 0.0025(5) 0.0889(4) 0.94377(12)
Mn6 Mn 0.47058(7) 0.55608(5) 0.83550(2)
Mn1 Mn 0.52942(7) 0.44392(5) 0.16450(2)
Mn2 Mn 0.49062(7) 0.17659(5) 0.28563(2)
O1 O 0.2748(3) 0.4941(2) 0.14654(9)
O2 O 0.0555(3) 0.4789(2) 0.19017(9)
O3 O 0.3926(3) 0.3000(2) 0.20820(9)
O4 O 0.3008(3) 0.1236(2) 0.23556(9)
O9 O 0.5017(3) 0.5386(2) 0.22997(9)
H1 H 0.413(4) 0.577(4) 0.2352(16)
H2 H 0.517(8) 0.482(5) 0.2493(19)
O10 O 0.7459(3) 0.3616(3) 0.19383(10)
H3 H 0.840(4) 0.399(4) 0.1955(16)
H4 H 0.742(8) 0.303(4) 0.2124(15)
O11 O 0.2931(4) 0.2312(3) 0.33030(11)
H5 H 0.248(6) 0.163(3) 0.3356(16)
H6 H 0.215(5) 0.267(4) 0.3169(15)
O12 O 0.6932(3) 0.1363(3) 0.23824(9)
H7 H 0.691(6) 0.075(3) 0.2203(13)
H8 H 0.784(4) 0.126(4) 0.2522(13)
N1 N 0.5268(4) 0.3048(3) 0.10891(11)
C1 C 0.1552(4) 0.4350(3) 0.16276(12)
C2 C 0.1188(4) 0.3044(3) 0.14627(12)
C3 C 0.1744(4) 0.1979(3) 0.16848(11)
C4 C 0.2966(4) 0.2082(3) 0.20637(11)
C5 C 0.1225(4) 0.0804(3) 0.15410(12)
H9 H 0.1568 0.0099 0.1696
C6 C 0.0193(5) 0.0674(3) 0.11660(11)
C8 C 0.0163(5) 0.2923(3) 0.10926(12)
C17 C 0.5478(6) 0.1833(4) 0.11664(15)
H15 H 0.5808 0.1586 0.1448
C18 C 0.4831(9) 0.3375(5) 0.06847(17)
H16 H 0.4694 0.4217 0.0622
C19 C 0.5233(7) 0.0931(4) 0.08525(17)
H17 H 0.5422 0.0098 0.0921
C20 C 0.4567(12) 0.2526(7) 0.03504(19)
H18 H 0.4295 0.2799 0.0067
C21 C 0.4708(9) 0.1267(6) 0.0437(2)
C22 C 0.4283(9) 0.0256(8) 0.0090(3)
Mn8 Mn 0.00938(7) 0.67659(5) 0.21437(2)
O27 O 0.5767(4) 0.3667(2) 0.29534(8)
O29 O 0.7165(4) 0.1379(3) 0.32530(9)
O31 O 0.6164(4) 0.5877(3) 0.11949(10)
H20 H 0.3602 0.0620 0.9856
H25 H 0.6362 0.0399 0.9774
H40 H 0.9436 0.0338 0.9613
Mn10 Mn 0.99062(7) 0.32341(5) 0.78563(2)
O26 O 0.5555(3) 0.0211(2) 0.69017(9)
H14 H 0.0564 0.9662 0.0387
H19 H 0.3638 0.9601 0.0226
H26 H 0.6398 0.9380 0.0144
O25 O 0.4445(3) 0.9789(2) 0.30983(9)
N2 N 0.4732(4) 0.6952(3) 0.89109(11)
C23 C 0.4522(6) 0.8167(4) 0.88336(15)
H21 H 0.4192 0.8414 0.8552
C24 C 0.5169(9) 0.6625(5) 0.93153(17)
H22 H 0.5306 0.5783 0.9378
C25 C 0.4767(7) 0.9069(4) 0.91475(17)
H23 H 0.4578 0.9902 0.9079
C26 C 0.5433(12) 0.7474(7) 0.96496(19)
H24 H 0.5705 0.7201 0.9933
C27 C 0.5292(9) 0.8733(6) 0.9563(2)
C28 C 0.5717(9) 0.9744(8) 0.9910(3)
Mn4 Mn 0.50938(7) 0.82341(5) 0.71437(2)
O13 O 0.7252(3) 0.5059(2) 0.85346(9)
O14 O 0.9445(3) 0.5211(2) 0.80983(9)
O15 O 0.6074(3) 0.7000(2) 0.79180(9)
O16 O 0.6992(3) 0.8764(2) 0.76444(9)
O21 O 0.4983(3) 0.4614(2) 0.77003(9)
H27 H 0.587(4) 0.423(4) 0.7648(16)
H28 H 0.483(8) 0.518(5) 0.7507(19)
O22 O 0.2541(3) 0.6384(3) 0.80617(10)
H29 H 0.160(4) 0.601(4) 0.8045(16)
H30 H 0.258(8) 0.697(4) 0.7876(15)
O23 O 0.7069(4) 0.7688(3) 0.66970(11)
H31 H 0.752(6) 0.837(3) 0.6644(16)
H32 H 0.785(5) 0.733(4) 0.6831(15)
O24 O 0.3068(3) 0.8637(3) 0.76176(9)
H33 H 0.309(6) 0.925(3) 0.7797(13)
H34 H 0.216(4) 0.874(4) 0.7478(13)
C29 C 0.8448(4) 0.5650(3) 0.83724(12)
C30 C 0.8812(4) 0.6956(3) 0.85373(12)
C31 C 0.8256(4) 0.8021(3) 0.83152(11)
C32 C 0.7034(4) 0.7918(3) 0.79363(11)
C33 C 0.8775(4) 0.9196(3) 0.84590(12)
H35 H 0.8432 0.9901 0.8304
C34 C 0.9807(5) 0.9326(3) 0.88340(11)
C36 C 0.9837(5) 0.7077(3) 0.89074(12)
O28 O 0.4233(4) 0.6333(2) 0.70466(8)
O30 O 0.2835(4) 0.8621(3) 0.67470(9)
O5 O 0.7020(4) 0.9620(3) 0.17502(9)
O6 O 0.9233(4) 0.8667(2) 0.20466(8)
O7 O 0.7835(4) 0.6379(3) 0.17470(9)
C9 C 0.9652(4) 0.9432(3) 0.09987(11)
C10 C 0.8776(4) 0.8588(3) 0.12602(11)
C11 C 0.8304(4) 0.8971(3) 0.17250(11)
C12 C 0.8222(5) 0.7455(3) 0.10800(11)
C13 C 0.7333(4) 0.6511(3) 0.13575(12)
C14 C 0.8532(6) 0.7175(4) 0.06434(13)
H12 H 0.8132 0.6435 0.0522
C15 C 0.9436(6) 0.7992(4) 0.03857(13)
H13 H 0.9678 0.7788 0.0096
C16 C 0.9975(5) 0.9111(4) 0.05623(12)
H1_2 H 0.087(4) 0.077(4) 0.2648(16)
O1_2 O 0.2252(3) 0.9941(2) 0.35346(9)
O3_2 O 0.1074(3) 0.8000(2) 0.29180(9)
O4_2 O 0.1992(3) 0.6236(2) 0.26444(9)
O5_2 O 0.7980(4) 0.4620(3) 0.32498(9)
O8 O 0.8836(4) 0.0877(3) 0.38051(10)
O11_2 O 0.2069(4) 0.7312(3) 0.16970(11)
H5_2 H 0.252(6) 0.663(3) 0.1644(16)
H6_2 H 0.285(5) 0.767(4) 0.1831(15)
C1_2 C 0.3448(4) 0.9350(3) 0.33724(12)
C2_2 C 0.3812(4) 0.8044(3) 0.35373(12)
C3_2 C 0.3256(4) 0.6979(3) 0.33152(11)
C4_2 C 0.2034(4) 0.7082(3) 0.29363(11)
C5_2 C 0.3775(4) 0.5804(3) 0.34590(12)
H9_2 H 0.3432 0.5099 0.3304
C6_2 C 0.4807(5) 0.5674(3) 0.38340(11)
C7 C 0.5306(5) 0.6750(3) 0.40571(12)
H10 H 0.5965 0.6681 0.4311
C8_2 C 0.4837(5) 0.7923(3) 0.39074(12)
H11 H 0.5212 0.8630 0.4056
C9_2 C 0.5348(4) 0.4432(3) 0.40013(11)
C10_2 C 0.6224(4) 0.3588(3) 0.37398(11)
C11_2 C 0.6696(4) 0.3971(3) 0.32750(11)
C12_2 C 0.6778(5) 0.2455(3) 0.39200(11)
C13_2 C 0.7667(4) 0.1511(3) 0.36425(12)
C14_2 C 0.6468(6) 0.2175(4) 0.43566(13)
H12_2 H 0.6868 0.1435 0.4478
C15_2 C 0.5564(6) 0.2992(4) 0.46143(13)
H13_2 H 0.5322 0.2788 0.4904
C16_2 C 0.5025(5) 0.4111(4) 0.44377(12)
H14_2 H 0.4436 0.4662 0.4613
C18_2 C 0.0169(9) 0.8375(5) 0.43153(17)
H16_2 H 0.0306 0.9217 0.4378
C20_2 C 0.0433(12) 0.7526(7) 0.46496(19)
H18_2 H 0.0705 0.7799 0.4933
C21_2 C 0.0292(9) 0.6267(6) 0.4563(2)
C22_2 C 0.0717(9) 0.5256(8) 0.4910(3)
H19_2 H 0.1362 0.4601 0.4774
H20_2 H 0.1398 0.5620 0.5144
N2_2 N 0.0268(4) 0.1952(3) 0.60891(11)
C23_2 C 0.0478(6) 0.3167(4) 0.61664(15)
H21_2 H 0.0808 0.3414 0.6448
C25_2 C 0.0233(7) 0.4069(4) 0.58525(17)
H23_2 H 0.0422 0.4902 0.5921
Mn3 Mn 0.02942(7) 0.05608(5) 0.66450(2)
H28_2 H 0.017(8) 0.018(5) 0.7493(19)
O22_2 O 0.2459(3) 0.1384(3) 0.69383(10)
H29_2 H 0.340(4) 0.101(4) 0.6955(16)
H30_2 H 0.242(8) 0.197(4) 0.7124(15)
O24_2 O 0.1932(3) 0.3637(3) 0.73824(9)
H33_2 H 0.191(6) 0.425(3) 0.7203(13)
H34_2 H 0.284(4) 0.374(4) 0.7522(13)
O21_2 O 0.0017(3) 0.9614(2) 0.72997(9)
Mn5 Mn 0.97058(7) 0.94392(5) 0.33550(2)
O32 O 0.1164(4) 0.9123(3) 0.61949(10)
O9_2 O 0.9983(3) 0.0386(2) 0.27003(9)
H2_2 H 0.983(8) 0.982(5) 0.2507(19)
O10_2 O 0.7541(3) 0.8616(3) 0.30617(10)
H3_2 H 0.660(4) 0.899(4) 0.3045(16)
H4_2 H 0.758(8) 0.803(4) 0.2876(15)
O12_2 O 0.8068(3) 0.6363(3) 0.26176(9)
H7_2 H 0.809(6) 0.575(3) 0.2797(13)
H8_2 H 0.716(4) 0.626(4) 0.2478(13)
N1_2 N 0.9732(4) 0.8048(3) 0.39109(11)
C17_2 C 0.9522(6) 0.6833(4) 0.38336(15)
H15_2 H 0.9192 0.6586 0.3552
C19_2 C 0.9767(7) 0.5931(4) 0.41475(17)
H17_2 H 0.9578 0.5098 0.4079
C24_2 C 0.9831(9) 0.1625(5) 0.56847(17)
H22_2 H 0.9694 0.0783 0.5622
C26_2 C 0.9567(12) 0.2474(7) 0.53504(19)
H24_2 H 0.9295 0.2201 0.5067
C27_2 C 0.9708(9) 0.3733(6) 0.5437(2)
C28_2 C 0.9283(9) 0.4744(8) 0.5090(3)
H25_2 H 0.8638 0.5399 0.5226
H26_2 H 0.8602 0.4380 0.4856
O13_2 O 0.7748(3) 0.0059(2) 0.64654(9)
O15_2 O 0.8926(3) 0.2000(2) 0.70820(9)
O16_2 O 0.8008(3) 0.3764(2) 0.73556(9)
O17_2 O 0.2020(4) 0.5380(3) 0.67502(9)
O23_2 O 0.7931(4) 0.2688(3) 0.83030(11)
H31_2 H 0.748(6) 0.337(3) 0.8356(16)
H32_2 H 0.715(5) 0.233(4) 0.8169(15)
C29_2 C 0.6552(4) 0.0650(3) 0.66276(12)
C30_2 C 0.6188(4) 0.1956(3) 0.64627(12)
C31_2 C 0.6744(4) 0.3021(3) 0.66848(11)
C32_2 C 0.7966(4) 0.2918(3) 0.70637(11)
C33_2 C 0.6225(4) 0.4196(3) 0.65410(12)
H35_2 H 0.6568 0.4901 0.6696
C34_2 C 0.5193(5) 0.4326(3) 0.61660(11)
C35 C 0.4694(5) 0.3250(3) 0.59429(12)
H36 H 0.4035 0.3319 0.5689
C36_2 C 0.5163(5) 0.2077(3) 0.60926(12)
H37 H 0.4788 0.1370 0.5944
C37_2 C 0.4652(4) 0.5568(3) 0.59987(11)
C38_2 C 0.3776(4) 0.6412(3) 0.62602(11)
C39_2 C 0.3304(4) 0.6029(3) 0.67250(11)
C40_2 C 0.3222(5) 0.7545(3) 0.60800(11)
C41_2 C 0.2333(4) 0.8489(3) 0.63575(12)
C42_2 C 0.3532(6) 0.7825(4) 0.56434(13)
H38_2 H 0.3132 0.8565 0.5522
C43_2 C 0.4436(6) 0.7008(4) 0.53857(13)
H39_2 H 0.4678 0.7212 0.5096
C44_2 C 0.4975(5) 0.5889(4) 0.55623(12)
H40_2 H 0.5564 0.5338 0.5387
H27_2 H 0.913(4) 0.923(4) 0.7352(16)
C35_2 C 0.0306(5) 0.8250(3) 0.90571(12)
H36_2 H 0.0965 0.8319 0.9311
H37_2 H 0.0212 0.6370 0.9056
C7_2 C 0.9694(5) 0.1750(3) 0.09429(12)
H10_2 H 0.9035 0.1681 0.0689
H11_2 H 0.9788 0.3630 0.0944
loop_
_geom_bond_atom_site_label_1
_geom_bond_atom_site_label_2
_geom_bond_site_symmetry_1
_geom_bond_site_symmetry_2
O17 C39 1_555 1_555
O18 C39 1_555 1_555
O19 C41 1_555 1_555
O20 C41 1_555 1_555
C38 C37 1_555 1_555
C39 C38 1_555 1_555
C40 C38 1_555 1_555
C41 C40 1_555 1_555
C42 C40 1_555 1_555
H38 C42 1_555 1_555
C43 C42 1_555 1_555
H39 C43 1_555 1_555
C44 C37 1_555 1_555
Mn6 O20 1_555 1_555
C43 C44 1_555 1_555
Mn1 O1 1_555 1_555
Mn2 O4 1_555 1_555
O1 C1 1_555 1_555
O2 C1 1_555 1_555
O3 Mn1 1_555 1_555
O4 C4 1_555 1_555
O9 Mn1 1_555 1_555
H1 O9 1_555 1_555
H2 O9 1_555 1_555
O10 Mn1 1_555 1_555
H3 O10 1_555 1_555
H4 O10 1_555 1_555
O11 Mn2 1_555 1_555
H5 O11 1_555 1_555
H6 O11 1_555 1_555
O12 Mn2 1_555 1_555
H7 O12 1_555 1_555
H8 O12 1_555 1_555
N1 Mn1 1_555 1_555
C1 C2 1_555 1_555
C2 C3 1_555 1_555
C3 C4 1_555 1_555
C4 O3 1_555 1_555
C5 C3 1_555 1_555
H9 C5 1_555 1_555
C6 C5 1_555 1_555
C8 C2 1_555 1_555
C17 N1 1_555 1_555
H15 C17 1_555 1_555
C18 N1 1_555 1_555
H16 C18 1_555 1_555
C19 C17 1_555 1_555
H17 C19 1_555 1_555
C20 C18 1_555 1_555
H18 C20 1_555 1_555
C21 C19 1_555 1_555
C22 C21 1_555 1_555
Mn8 O2 1_555 1_555
O27 Mn2 1_555 1_555
O29 Mn2 1_555 1_555
O31 Mn1 1_555 1_555
C20 C21 1_555 1_555
N2 C23 1_555 1_555
C23 H21 1_555 1_555
C24 N2 1_555 1_555
H22 C24 1_555 1_555
C25 C23 1_555 1_555
H23 C25 1_555 1_555
C26 C24 1_555 1_555
H24 C26 1_555 1_555
C27 C25 1_555 1_555
Mn6 N2 1_555 1_555
Mn4 O16 1_555 1_555
O13 Mn6 1_555 1_555
O14 C29 1_555 1_555
O15 Mn6 1_555 1_555
O16 C32 1_555 1_555
O21 Mn6 1_555 1_555
H27 O21 1_555 1_555
H28 O21 1_555 1_555
O22 Mn6 1_555 1_555
H29 O22 1_555 1_555
H30 O22 1_555 1_555
O23 Mn4 1_555 1_555
H31 O23 1_555 1_555
H32 O23 1_555 1_555
O24 Mn4 1_555 1_555
H33 O24 1_555 1_555
H34 O24 1_555 1_555
C29 O13 1_555 1_555
C30 C29 1_555 1_555
C31 C30 1_555 1_555
C32 O15 1_555 1_555
C33 C31 1_555 1_555
H35 C33 1_555 1_555
C34 C33 1_555 1_555
C36 C30 1_555 1_555
Mn10 O14 1_555 1_555
O28 Mn4 1_555 1_555
O30 Mn4 1_555 1_555
C26 C27 1_555 1_555
C27 C28 1_555 1_555
C31 C32 1_555 1_555
O5 C11 1_555 1_555
O6 C11 1_555 1_555
O7 C13 1_555 1_555
O31 C13 1_555 1_555
C10 C9 1_555 1_555
C11 C10 1_555 1_555
C12 C10 1_555 1_555
C13 C12 1_555 1_555
C14 C12 1_555 1_555
H12 C14 1_555 1_555
C15 C14 1_555 1_555
H13 C15 1_555 1_555
C16 C9 1_555 1_555
C15 C16 1_555 1_555
Mn8 O4_2 1_555 1_555
O1_2 C1_2 1_555 1_555
O25 C1_2 1_555 1_555
O4_2 C4_2 1_555 1_555
O5_2 C11_2 1_555 1_555
O27 C11_2 1_555 1_555
O29 C13_2 1_555 1_555
O8 C13_2 1_555 1_555
O11_2 Mn8 1_555 1_555
H5_2 O11_2 1_555 1_555
H6_2 O11_2 1_555 1_555
C1_2 C2_2 1_555 1_555
C2_2 C3_2 1_555 1_555
C3_2 C4_2 1_555 1_555
C4_2 O3_2 1_555 1_555
C5_2 C3_2 1_555 1_555
H9_2 C5_2 1_555 1_555
C6_2 C5_2 1_555 1_555
C7 C6_2 1_555 1_555
H10 C7 1_555 1_555
C8_2 C2_2 1_555 1_555
H11 C8_2 1_555 1_555
C9_2 C6_2 1_555 1_555
C10_2 C9_2 1_555 1_555
C11_2 C10_2 1_555 1_555
C12_2 C10_2 1_555 1_555
C13_2 C12_2 1_555 1_555
C14_2 C12_2 1_555 1_555
H12_2 C14_2 1_555 1_555
C15_2 C14_2 1_555 1_555
H13_2 C15_2 1_555 1_555
C16_2 C9_2 1_555 1_555
H14_2 C16_2 1_555 1_555
H16_2 C18_2 1_555 1_555
C20_2 C18_2 1_555 1_555
H18_2 C20_2 1_555 1_555
C22_2 C21_2 1_555 1_555
H19_2 C22_2 1_555 1_555
H20_2 C22_2 1_555 1_555
N2_2 C23_2 1_555 1_555
C23_2 H21_2 1_555 1_555
C25_2 C23_2 1_555 1_555
H23_2 C25_2 1_555 1_555
Mn3 N2_2 1_555 1_555
O22_2 Mn3 1_555 1_555
H29_2 O22_2 1_555 1_555
H30_2 O22_2 1_555 1_555
H33_2 O24_2 1_555 1_555
H34_2 O24_2 1_555 1_555
C7 C8_2 1_555 1_555
C15_2 C16_2 1_555 1_555
C20_2 C21_2 1_555 1_555
O10_2 Mn5 1_555 1_555
H3_2 O10_2 1_555 1_555
H4_2 O10_2 1_555 1_555
H7_2 O12_2 1_555 1_555
H8_2 O12_2 1_555 1_555
N1_2 Mn5 1_555 1_555
C17_2 N1_2 1_555 1_555
H15_2 C17_2 1_555 1_555
C19_2 C17_2 1_555 1_555
H17_2 C19_2 1_555 1_555
H22_2 C24_2 1_555 1_555
C26_2 C24_2 1_555 1_555
H24_2 C26_2 1_555 1_555
H25_2 C28_2 1_555 1_555
H26_2 C28_2 1_555 1_555
Mn10 O16_2 1_555 1_555
O26 C29_2 1_555 1_555
O16_2 C32_2 1_555 1_555
O17_2 C39_2 1_555 1_555
O28 C39_2 1_555 1_555
O30 C41_2 1_555 1_555
O32 C41_2 1_555 1_555
O23_2 Mn10 1_555 1_555
H31_2 O23_2 1_555 1_555
H32_2 O23_2 1_555 1_555
C29_2 O13_2 1_555 1_555
C30_2 C29_2 1_555 1_555
C31_2 C30_2 1_555 1_555
C32_2 O15_2 1_555 1_555
C33_2 C31_2 1_555 1_555
H35_2 C33_2 1_555 1_555
C34_2 C33_2 1_555 1_555
C35 C34_2 1_555 1_555
H36 C35 1_555 1_555
C36_2 C30_2 1_555 1_555
H37 C36_2 1_555 1_555
C37_2 C34_2 1_555 1_555
C38_2 C37_2 1_555 1_555
C39_2 C38_2 1_555 1_555
C40_2 C38_2 1_555 1_555
C41_2 C40_2 1_555 1_555
C42_2 C40_2 1_555 1_555
H38_2 C42_2 1_555 1_555
C43_2 C42_2 1_555 1_555
H39_2 C43_2 1_555 1_555
C44_2 C37_2 1_555 1_555
H40_2 C44_2 1_555 1_555
C26_2 C27_2 1_555 1_555
C27_2 C28_2 1_555 1_555
C31_2 C32_2 1_555 1_555
C35 C36_2 1_555 1_555
C43_2 C44_2 1_555 1_555
H36_2 C35_2 1_555 1_555
H10_2 C7_2 1_555 1_555

#END
