
###############################################################################
#
# This file contains modified crystal structure data generated from the
# MOF subset of the Cambridge Structural Database (CSD) v543 
# hosted by the Cambridge Crystallographic Data Centre (CCDC).
#
# This work is licensed under the Creative Commons
# Attribution-NonCommercial-ShareAlike 4.0 International License.
# To view a copy of this license, visit
# http://creativecommons.org/licenses/by-nc-sa/4.0/
# or send a letter to
# Creative Commons, PO Box 1866, Mountain View, CA 94042, USA.
#
# CIF created using the CSD Python API on 29 September 2022
# The structure has been converted into the P1 space group
# The structure has a 3D framework
# The original CSD entry ZACSOP is in the monoclinic crystal system
# The framework has been calculated to contain at least 10.0% void space
# The void calculation uses a probe of radius 1.32A, grid spacing 0.4
#
###############################################################################

data_ZACSOP
_chemical_formula_moiety         '(C64 H34 In8 O50)n'
_symmetry_cell_setting           triclinic
_symmetry_space_group_name_H-M   'P 1'
_symmetry_Int_Tables_number      1
_space_group_name_Hall           'P 1'
loop_
_symmetry_equiv_pos_site_id
_symmetry_equiv_pos_as_xyz
1 x,y,z
_cell_length_a                   21.824(4)
_cell_length_b                   7.1780(14)
_cell_length_c                   21.853(4)
_cell_angle_alpha                90
_cell_angle_beta                 90.94(3)
_cell_angle_gamma                90
_cell_volume                     3422.87
loop_
_atom_site_label
_atom_site_type_symbol
_atom_site_fract_x
_atom_site_fract_y
_atom_site_fract_z
In1 In 0.25110(4) 0.48737(9) 0.25145(3)
O1 O 0.2097(3) 0.7356(5) 0.2252(3)
H1 H 0.1724 0.7331 0.2023
O3 O 0.2349(2) 0.3937(6) 0.1580(2)
O4 O 0.2341(2) 0.0838(6) 0.1558(2)
C1 C 0.2299(4) 0.2388(8) 0.1316(4)
O7 O 0.2143(2) 0.5847(6) 0.0590(2)
H3 H 0.2474 0.6424 0.0547
C3 C 0.2235(3) 0.2425(8) 0.0630(3)
C4 C 0.2179(3) 0.4137(8) 0.0306(3)
C8 C 0.2256(3) 0.0795(8) 0.0323(3)
O9 O 0.1599(2) 0.0845(6) 0.2740(3)
O10 O 0.1605(2) 0.3954(6) 0.2750(3)
C9 C 0.1339(4) 0.2371(8) 0.2760(4)
O13 O 0.0585(2) 0.5801(6) 0.2774(3)
H7 H 0.0964 0.5702 0.2841
C11 C 0.06508(17) 0.2407(5) 0.2790(3)
C12 C 0.03249(19) 0.4070(4) 0.2764(2)
C16 C 0.0340(2) 0.0717(4) 0.2799(2)
In4 In 0.24890(4) 0.98737(9) 0.24855(3)
O15 O 0.2903(3) 0.2356(5) 0.2748(3)
O17 O 0.2659(2) 0.5838(6) 0.3442(2)
O19 O 0.3401(2) 0.5845(6) 0.2260(3)
In2 In 0.25241(2) 0.00832(12) 0.74675(2)
O5 O 0.2313(3) 0.0997(6) 0.8386(2)
O6 O 0.2235(2) 0.4094(6) 0.8431(2)
C2 C 0.2260(4) 0.2542(7) 0.8672(4)
C5 C 0.2176(3) 0.4119(8) 0.9671(3)
H5 H 0.2140 0.5261 0.9454
C6 C 0.2225(4) 0.2465(7) 0.9350(3)
C7 C 0.2257(3) 0.0762(8) 0.9675(3)
In6 In 0.24759(2) 0.50832(12) 0.75325(2)
O16 O 0.2250(3) 0.2611(6) 0.7110(3)
O20 O 0.3433(2) 0.1056(6) 0.7607(3)
H6 H 0.2269 0.9656 0.0545
H10 H 0.0563 0.9581 0.2817
O2 O 0.2750(3) 0.7611(6) 0.7890(3)
H2 H 0.2987 0.7635 0.8259
O8 O 0.2308(3) 0.9048(5) 0.9403(2)
H4 H 0.2517 0.9144 0.9085
O18 O 0.2765(2) 0.9094(6) 0.6569(2)
O21 O 0.1589(2) 0.9146(6) 0.7322(2)
O11 O 0.8433(2) 0.3944(6) 0.2607(3)
O12 O 0.8411(2) 0.0854(6) 0.2678(2)
C10 C 0.8700(4) 0.2389(8) 0.2653(4)
C13 C 0.96880(19) 0.4043(4) 0.2746(2)
H9 H 0.9465 0.5179 0.2728
C14 C 0.93770(17) 0.2353(5) 0.2754(3)
C15 C 0.9703(2) 0.0690(4) 0.2781(2)
In8 In 0.75241(2) 0.49168(12) 0.24675(2)
O14 O 0.9436(2) 0.8979(6) 0.2800(3)
H8 H 0.9053 0.9096 0.2772
In7 In 0.74759(2) 0.99168(12) 0.25325(2)
H1_2 H 0.3276 0.2331 0.2977
O7_2 O 0.2857(2) 0.0847(6) 0.4410(2)
H3_2 H 0.2526 0.1424 0.4453
H5_2 H 0.2860 0.0261 0.5546
O13_2 O 0.4415(2) 0.0801(6) 0.2226(3)
H7_2 H 0.4036 0.0702 0.2159
H9_2 H 0.5535 0.0179 0.2272
H2_2 H 0.2013 0.2635 0.6741
O3_2 O 0.2651(2) 0.8937(6) 0.3420(2)
C1_2 C 0.2701(4) 0.7388(8) 0.3684(4)
O5_2 O 0.2687(3) 0.5997(6) 0.6614(2)
C2_2 C 0.2740(4) 0.7542(7) 0.6328(4)
O8_2 O 0.2692(3) 0.4048(5) 0.5597(2)
H4_2 H 0.2483 0.4144 0.5915
C3_2 C 0.2765(3) 0.7425(8) 0.4370(3)
C4_2 C 0.2821(3) 0.9137(8) 0.4694(3)
C5_2 C 0.2824(3) 0.9119(8) 0.5329(3)
C6_2 C 0.2775(4) 0.7465(7) 0.5650(3)
C7_2 C 0.2743(3) 0.5762(8) 0.5325(3)
C8_2 C 0.2744(3) 0.5795(8) 0.4677(3)
H6_2 H 0.2731 0.4656 0.4455
O10_2 O 0.3395(2) 0.8954(6) 0.2250(3)
C9_2 C 0.3661(4) 0.7371(8) 0.2240(4)
O11_2 O 0.6567(2) 0.8944(6) 0.2393(3)
O12_2 O 0.6589(2) 0.5854(6) 0.2322(2)
C10_2 C 0.6300(4) 0.7389(8) 0.2347(4)
O14_2 O 0.5564(2) 0.3979(6) 0.2200(3)
H8_2 H 0.5947 0.4096 0.2228
C11_2 C 0.43492(17) 0.7407(5) 0.2210(3)
C12_2 C 0.46751(19) 0.9070(4) 0.2236(2)
C13_2 C 0.53120(19) 0.9043(4) 0.2254(2)
C14_2 C 0.56230(17) 0.7353(5) 0.2246(3)
C15_2 C 0.5297(2) 0.5690(4) 0.2219(2)
C16_2 C 0.4660(2) 0.5717(4) 0.2201(2)
H10_2 H 0.4437 0.4581 0.2183
O20_2 O 0.1567(2) 0.6056(6) 0.7393(3)
O21_2 O 0.3411(2) 0.4146(6) 0.7678(2)
O14_3 O 0.0564(2) 0.1021(6) 0.7200(3)
H8_3 H 0.0947 0.0904 0.7228
C10_3 C 0.1300(4) 0.7611(8) 0.7347(4)
C13_3 C 0.03120(19) 0.5957(4) 0.7254(2)
H9_3 H 0.0535 0.4821 0.7272
C14_3 C 0.06230(17) 0.7647(5) 0.7246(3)
C15_3 C 0.0297(2) 0.9310(4) 0.7219(2)
O2_2 O 0.7250(3) 0.2389(6) 0.2110(3)
H2_3 H 0.7013 0.2365 0.1741
O8_3 O 0.7692(3) 0.0952(5) 0.0597(2)
H4_3 H 0.7483 0.0856 0.0915
O18_2 O 0.7235(2) 0.0906(6) 0.3431(2)
H6_3 H 0.7731 0.0344 0.9455
H10_3 H 0.9437 0.0419 0.7183
In3 In 0.75110(4) 0.01263(9) 0.75145(3)
O5_3 O 0.7687(3) 0.9003(6) 0.1614(2)
O6_2 O 0.7765(2) 0.5906(6) 0.1569(2)
C2_3 C 0.7740(4) 0.7458(7) 0.1328(4)
C5_3 C 0.7824(3) 0.5881(8) 0.0329(3)
H5_3 H 0.7860 0.4739 0.0546
C6_3 C 0.7775(4) 0.7535(7) 0.0650(3)
C7_3 C 0.7743(3) 0.9238(8) 0.0325(3)
O16_2 O 0.7750(3) 0.7389(6) 0.2890(3)
In1_2 In 0.74890(4) 0.51263(9) 0.74855(3)
O1_2 O 0.7903(3) 0.2644(5) 0.7748(3)
H1_3 H 0.8276 0.2669 0.7977
O3_3 O 0.7651(2) 0.6063(6) 0.8420(2)
O4_2 O 0.7659(2) 0.9162(6) 0.8442(2)
C1_3 C 0.7701(4) 0.7612(8) 0.8684(4)
O7_3 O 0.7857(2) 0.4153(6) 0.9410(2)
H3_3 H 0.7526 0.3576 0.9453
C3_3 C 0.7765(3) 0.7575(8) 0.9370(3)
C4_3 C 0.7821(3) 0.5863(8) 0.9694(3)
C8_3 C 0.7744(3) 0.9205(8) 0.9677(3)
O9_2 O 0.8401(2) 0.9155(6) 0.7260(3)
O10_3 O 0.8395(2) 0.6046(6) 0.7250(3)
C9_3 C 0.8661(4) 0.7629(8) 0.7240(4)
O13_3 O 0.9415(2) 0.4199(6) 0.7226(3)
H7_3 H 0.9036 0.4298 0.7159
C11_3 C 0.93492(17) 0.7593(5) 0.7210(3)
C12_3 C 0.96751(19) 0.5930(4) 0.7236(2)
C16_3 C 0.9660(2) 0.9283(4) 0.7201(2)
O15_2 O 0.7097(3) 0.7644(5) 0.7252(3)
O17_2 O 0.7341(2) 0.4162(6) 0.6558(2)
O19_2 O 0.6599(2) 0.4155(6) 0.7740(3)
H2_4 H 0.7987 0.7365 0.3259
O3_4 O 0.7349(2) 0.1063(6) 0.6580(2)
C1_4 C 0.7299(4) 0.2612(8) 0.6316(4)
O5_4 O 0.7313(3) 0.4003(6) 0.3386(2)
C2_4 C 0.7260(4) 0.2458(7) 0.3672(4)
O8_4 O 0.7308(3) 0.5952(5) 0.4403(2)
H4_4 H 0.7517 0.5856 0.4085
C3_4 C 0.7235(3) 0.2575(8) 0.5630(3)
C4_4 C 0.7179(3) 0.0863(8) 0.5306(3)
C5_4 C 0.7176(3) 0.0881(8) 0.4671(3)
C6_4 C 0.7225(4) 0.2535(7) 0.4350(3)
C7_4 C 0.7257(3) 0.4238(8) 0.4675(3)
C8_4 C 0.7256(3) 0.4205(8) 0.5323(3)
H6_4 H 0.7269 0.5344 0.5545
O10_4 O 0.6605(2) 0.1046(6) 0.7750(3)
C9_4 C 0.6339(4) 0.2629(8) 0.7760(4)
C10_4 C 0.3700(4) 0.2611(8) 0.7653(4)
O14_4 O 0.4436(2) 0.6021(6) 0.7800(3)
H8_4 H 0.4053 0.5904 0.7772
C11_4 C 0.56508(17) 0.2593(5) 0.7790(3)
C12_4 C 0.53249(19) 0.0930(4) 0.7764(2)
C13_4 C 0.46880(19) 0.0957(4) 0.7746(2)
C14_4 C 0.43770(17) 0.2647(5) 0.7754(3)
C15_4 C 0.4703(2) 0.4310(4) 0.7781(2)
C16_4 C 0.5340(2) 0.4283(4) 0.7799(2)
H10_4 H 0.5563 0.5419 0.7817
H1_4 H 0.6724 0.7669 0.7023
O7_4 O 0.7143(2) 0.9153(6) 0.5590(2)
H3_4 H 0.7474 0.8576 0.5547
H5_4 H 0.7140 0.9739 0.4454
O13_4 O 0.5585(2) 0.9199(6) 0.7774(3)
H7_4 H 0.5964 0.9298 0.7841
H9_4 H 0.4465 0.9821 0.7728
loop_
_geom_bond_atom_site_label_1
_geom_bond_atom_site_label_2
_geom_bond_site_symmetry_1
_geom_bond_site_symmetry_2
In1 O1 1_555 1_555
O1 H1 1_555 1_555
O3 In1 1_555 1_555
O4 C1 1_555 1_555
C1 O3 1_555 1_555
O7 H3 1_555 1_555
C3 C1 1_555 1_555
C4 O7 1_555 1_555
C8 C3 1_555 1_555
O9 C9 1_555 1_555
O10 In1 1_555 1_555
C9 O10 1_555 1_555
O13 H7 1_555 1_555
C11 C9 1_555 1_555
C12 O13 1_555 1_555
C16 C11 1_555 1_555
In4 O1 1_555 1_555
O15 In1 1_555 1_555
O17 In1 1_555 1_555
O19 In1 1_555 1_555
C3 C4 1_555 1_555
C11 C12 1_555 1_555
O5 In2 1_555 1_555
O6 C2 1_555 1_555
C2 O5 1_555 1_555
H5 C5 1_555 1_555
C6 C2 1_555 1_555
In6 O6 1_555 1_555
O16 In2 1_555 1_555
O20 In2 1_555 1_555
C5 C6 1_555 1_555
C6 C7 1_555 1_555
In6 O16 1_555 1_555
O2 H2 1_555 1_555
O8 H4 1_555 1_555
In6 O2 1_555 1_555
O11 C10 1_555 1_555
O12 C10 1_555 1_555
C10 C14 1_555 1_555
H9 C13 1_555 1_555
C14 C13 1_555 1_555
In8 O11 1_555 1_555
C14 C15 1_555 1_555
O14 H8 1_555 1_555
O15 H1_2 1_555 1_555
O7_2 H3_2 1_555 1_555
O13_2 H7_2 1_555 1_555
O16 H2_2 1_555 1_555
O3_2 In4 1_555 1_555
O17 C1_2 1_555 1_555
C1_2 O3_2 1_555 1_555
O5_2 In6 1_555 1_555
O18 C2_2 1_555 1_555
C2_2 O5_2 1_555 1_555
O8_2 H4_2 1_555 1_555
C3_2 C1_2 1_555 1_555
C5_2 C4_2 1_555 1_555
C6_2 C2_2 1_555 1_555
C7_2 O8_2 1_555 1_555
C8_2 C3_2 1_555 1_555
H6_2 C8_2 1_555 1_555
O19 C9_2 1_555 1_555
O10_2 In4 1_555 1_555
C9_2 O10_2 1_555 1_555
O11_2 C10_2 1_555 1_555
O12_2 C10_2 1_555 1_555
C10_2 C14_2 1_555 1_555
O14_2 H8_2 1_555 1_555
C11_2 C9_2 1_555 1_555
C13_2 C12_2 1_555 1_555
C14_2 C13_2 1_555 1_555
C15_2 O14_2 1_555 1_555
C16_2 C11_2 1_555 1_555
H10_2 C16_2 1_555 1_555
In8 O12_2 1_555 1_555
In7 O11_2 1_555 1_555
O20_2 In6 1_555 1_555
O21_2 In6 1_555 1_555
C3_2 C4_2 1_555 1_555
C5_2 C6_2 1_555 1_555
C6_2 C7_2 1_555 1_555
C7_2 C8_2 1_555 1_555
C11_2 C12_2 1_555 1_555
C14_2 C15_2 1_555 1_555
C15_2 C16_2 1_555 1_555
O14_3 H8_3 1_555 1_555
O20_2 C10_3 1_555 1_555
O21 C10_3 1_555 1_555
C10_3 C14_3 1_555 1_555
H9_3 C13_3 1_555 1_555
C14_3 C13_3 1_555 1_555
C14_3 C15_3 1_555 1_555
O2_2 H2_3 1_555 1_555
O8_3 H4_3 1_555 1_555
In8 O2_2 1_555 1_555
O5_3 In7 1_555 1_555
O6_2 C2_3 1_555 1_555
C2_3 O5_3 1_555 1_555
H5_3 C5_3 1_555 1_555
C6_3 C2_3 1_555 1_555
In8 O6_2 1_555 1_555
O16_2 In7 1_555 1_555
C5_3 C6_3 1_555 1_555
C6_3 C7_3 1_555 1_555
In8 O16_2 1_555 1_555
In1_2 O1_2 1_555 1_555
O1_2 H1_3 1_555 1_555
O3_3 In1_2 1_555 1_555
O4_2 C1_3 1_555 1_555
C1_3 O3_3 1_555 1_555
O7_3 H3_3 1_555 1_555
C3_3 C1_3 1_555 1_555
C4_3 O7_3 1_555 1_555
C8_3 C3_3 1_555 1_555
O9_2 C9_3 1_555 1_555
O10_3 In1_2 1_555 1_555
C9_3 O10_3 1_555 1_555
O13_3 H7_3 1_555 1_555
C11_3 C9_3 1_555 1_555
C12_3 O13_3 1_555 1_555
C16_3 C11_3 1_555 1_555
In3 O1_2 1_555 1_555
O15_2 In1_2 1_555 1_555
O17_2 In1_2 1_555 1_555
O19_2 In1_2 1_555 1_555
C3_3 C4_3 1_555 1_555
C11_3 C12_3 1_555 1_555
O16_2 H2_4 1_555 1_555
O3_4 In3 1_555 1_555
O17_2 C1_4 1_555 1_555
C1_4 O3_4 1_555 1_555
O5_4 In8 1_555 1_555
O18_2 C2_4 1_555 1_555
C2_4 O5_4 1_555 1_555
O8_4 H4_4 1_555 1_555
C3_4 C1_4 1_555 1_555
C5_4 C4_4 1_555 1_555
C6_4 C2_4 1_555 1_555
C7_4 O8_4 1_555 1_555
C8_4 C3_4 1_555 1_555
H6_4 C8_4 1_555 1_555
O19_2 C9_4 1_555 1_555
O10_4 In3 1_555 1_555
C9_4 O10_4 1_555 1_555
O20 C10_4 1_555 1_555
O21_2 C10_4 1_555 1_555
C10_4 C14_4 1_555 1_555
O14_4 H8_4 1_555 1_555
C11_4 C9_4 1_555 1_555
C13_4 C12_4 1_555 1_555
C14_4 C13_4 1_555 1_555
C15_4 O14_4 1_555 1_555
C16_4 C11_4 1_555 1_555
H10_4 C16_4 1_555 1_555
C3_4 C4_4 1_555 1_555
C5_4 C6_4 1_555 1_555
C6_4 C7_4 1_555 1_555
C7_4 C8_4 1_555 1_555
C11_4 C12_4 1_555 1_555
C14_4 C15_4 1_555 1_555
C15_4 C16_4 1_555 1_555
O15_2 H1_4 1_555 1_555
O7_4 H3_4 1_555 1_555
O13_4 H7_4 1_555 1_555

#END
