
###############################################################################
#
# This file contains modified crystal structure data generated from the
# MOF subset of the Cambridge Structural Database (CSD) v543 
# hosted by the Cambridge Crystallographic Data Centre (CCDC).
#
# This work is licensed under the Creative Commons
# Attribution-NonCommercial-ShareAlike 4.0 International License.
# To view a copy of this license, visit
# http://creativecommons.org/licenses/by-nc-sa/4.0/
# or send a letter to
# Creative Commons, PO Box 1866, Mountain View, CA 94042, USA.
#
# CIF created using the CSD Python API on 29 September 2022
# The structure has been converted into the P1 space group
# The structure has a 3D framework
# The original CSD entry ZAGFOF is in the monoclinic crystal system
# The framework has been calculated to contain at least 10.0% void space
# The void calculation uses a probe of radius 1.32A, grid spacing 0.4
#
###############################################################################

data_ZAGFOF
_chemical_formula_moiety         '(C156 H104 Co6 N28 O32)n'
_symmetry_cell_setting           triclinic
_symmetry_space_group_name_H-M   'P 1'
_symmetry_Int_Tables_number      1
_space_group_name_Hall           'P 1'
loop_
_symmetry_equiv_pos_site_id
_symmetry_equiv_pos_as_xyz
1 x,y,z
_cell_length_a                   16.9635(6)
_cell_length_b                   15.9528(6)
_cell_length_c                   28.6856(10)
_cell_angle_alpha                90
_cell_angle_beta                 113.858(2)
_cell_angle_gamma                90
_cell_volume                     7099.44
loop_
_atom_site_label
_atom_site_type_symbol
_atom_site_fract_x
_atom_site_fract_y
_atom_site_fract_z
C47 C 0.1408(4) 0.1043(4) 0.0890(2)
C48 C 0.0198(4) 0.0643(4) 0.1086(2)
H31 H 0.0069 0.1242 0.1704
C53 C 0.2177(2) 0.1628(2) 0.10719(15)
C54 C 0.2702(3) 0.1648(3) 0.08051(15)
H35 H 0.2598 0.1274 0.0529
C55 C 0.3379(3) 0.2217(3) 0.09424(17)
H36 H 0.3738 0.2231 0.0760
C56 C 0.3531(3) 0.2765(3) 0.13465(18)
H37 H 0.3994 0.3153 0.1440
C57 C 0.3006(3) 0.2744(3) 0.16133(15)
C58 C 0.2329(2) 0.2175(3) 0.14760(15)
H38 H 0.1970 0.2161 0.1658
C59 C 0.3352(4) 0.4364(3) 0.3491(2)
H39 H 0.3880 0.4553 0.3748
C60 C 0.3377(4) 0.4097(4) 0.3043(2)
H40 H 0.3891 0.4129 0.2988
C61 C 0.2643(4) 0.3789(4) 0.2685(2)
C62 C 0.1927(4) 0.3781(5) 0.2801(3)
H41 H 0.1404 0.3556 0.2558
C63 C 0.1937(5) 0.4073(5) 0.3235(3)
H42 H 0.1418 0.4060 0.3287
C64 C 0.3232(7) 0.3342(7) 0.2057(4)
N10 N 0.1020(3) 0.0972(3) 0.1211(2)
H51 H 0.1305 0.1146 0.1526
N11 N 0.2549(3) 0.3442(4) 0.2213(2)
H52 H 0.2032 0.3279 0.2002
N12 N 0.2646(3) 0.4386(3) 0.36040(18)
O11 O 0.1158(3) 0.0715(3) 0.04842(18)
O12 O 0.3938(4) 0.3633(5) 0.2269(2)
Co8 Co 0.27766(5) 0.48105(4) 0.43485(3)
Co9 Co 0.5000 0.0000 0.0000
Co9_2 Co 0.5000 0.0000 1.0000
N5 N 0.5223(3) 0.4689(3) 0.0013(2)
C40 C 0.6471(5) 0.8469(3) 0.0351(2)
C41 C 0.5990(2) 0.76495(15) 0.02220(17)
C42 C 0.5154(2) 0.75669(17) 0.01901(19)
H27 H 0.4847 0.8047 0.0220
C43 C 0.4768(2) 0.6781(2) 0.0115(2)
H28 H 0.4196 0.6725 0.0093
C44 C 0.5218(2) 0.60784(16) 0.0071(2)
C45 C 0.6054(2) 0.61610(16) 0.01029(19)
H29 H 0.6361 0.5681 0.0073
C46 C 0.6440(2) 0.6947(2) 0.01784(17)
H30 H 0.7011 0.7003 0.0200
O9 O 0.7256(3) 0.8512(2) 0.04417(14)
O10 O 0.6016(2) 0.91209(19) 0.03720(12)
C49 C 0.9788(5) 0.0894(4) 0.1415(2)
C50 C 0.8950(4) 0.0595(4) 0.1285(2)
H32 H 0.8672 0.0755 0.1500
C52 C 0.9734(5) 0.0153(4) 0.0677(2)
N9 N 0.8500(3) 0.0104(3) 0.08852(16)
Co6 Co 0.72234(5) 0.98105(4) 0.06515(3)
Co9_3 Co 0.5000 1.0000 0.0000
O17 O 0.6889(3) 0.0968(2) 0.08082(14)
O19 O 0.5497(3) 0.0824(2) 0.06133(16)
C5 C 0.1079(4) 0.0112(3) 0.9416(2)
H3 H 0.1368 0.0462 0.9702
H4 H 0.0013 0.0009 0.9551
C26 C 0.3529(5) 0.1531(3) 0.9649(2)
C27 C 0.4010(2) 0.23505(15) 0.97780(17)
C28 C 0.4846(2) 0.24331(17) 0.98099(19)
H17 H 0.5153 0.1953 0.9780
C29 C 0.5232(2) 0.3219(2) 0.9885(2)
H18 H 0.5804 0.3275 0.9907
C30 C 0.4782(2) 0.39216(16) 0.9929(2)
C31 C 0.3946(2) 0.38390(16) 0.98971(19)
H19 H 0.3639 0.4319 0.9927
C32 C 0.3560(2) 0.3053(2) 0.98216(17)
H20 H 0.2989 0.2997 0.9800
Co1 Co 0.27766(5) 0.01895(4) 0.93485(3)
O5 O 0.2744(3) 0.1488(2) 0.95583(14)
O6 O 0.3984(2) 0.08791(19) 0.96280(12)
N8 N 0.4777(3) 0.5311(3) 0.9987(2)
C65 C 0.6253(5) 0.3860(3) 0.5863(2)
C66 C 0.6305(4) 0.3304(4) 0.63002(16)
C67 C 0.5598(3) 0.3213(5) 0.6425(2)
H43 H 0.5054 0.3437 0.6206
C68 C 0.5686(4) 0.2794(5) 0.6868(3)
H44 H 0.5203 0.2732 0.6953
C69 C 0.6481(5) 0.2466(4) 0.71870(18)
C70 C 0.7188(4) 0.2557(3) 0.7063(2)
H45 H 0.7732 0.2334 0.7281
C71 C 0.7100(3) 0.2976(4) 0.6619(2)
H46 H 0.7583 0.3038 0.6534
C72 C 0.6386(4) 0.0476(3) 0.9598(2)
C73 C 0.6408(3) 0.0828(3) 0.91254(16)
C74 C 0.5703(3) 0.1274(4) 0.8790(2)
H47 H 0.5197 0.1321 0.8854
C75 C 0.5738(4) 0.1652(5) 0.8363(2)
H48 H 0.5256 0.1957 0.8134
C76 C 0.6479(4) 0.1583(5) 0.8270(2)
C77 C 0.7184(3) 0.1137(4) 0.8605(2)
H49 H 0.7690 0.1090 0.8541
C78 C 0.7149(3) 0.0759(3) 0.90325(18)
H50 H 0.7631 0.0454 0.9261
O13 O 0.6889(3) 0.4032(2) 0.58082(14)
O14 O 0.5497(3) 0.4176(2) 0.56133(16)
O15 O 0.5676(3) 0.05473(19) 0.96301(13)
O16 O 0.7029(3) 0.0139(2) 0.99158(14)
N13 N 0.6270(7) 0.2195(7) 0.7842(4)
N14 N 0.6741(5) 0.1951(5) 0.7639(3)
Co5 Co 0.72234(5) 0.51895(4) 0.56515(3)
Co9_4 Co 0.5000 1.0000 1.0000
Co11 Co 0.5000 0.5000 0.5000
N15 N 0.2646(3) 0.0614(3) 0.86040(18)
C19 C 0.3747(5) 0.6140(3) 0.4137(2)
C20 C 0.3695(4) 0.6696(4) 0.36998(16)
C21 C 0.4402(3) 0.6787(5) 0.3575(2)
H13 H 0.4946 0.6563 0.3794
C22 C 0.4314(4) 0.7206(5) 0.3132(3)
H14 H 0.4797 0.7268 0.3047
C23 C 0.3519(5) 0.7534(4) 0.28130(18)
C24 C 0.2812(4) 0.7443(3) 0.2937(2)
H15 H 0.2268 0.7666 0.2719
C25 C 0.2900(3) 0.7024(4) 0.3381(2)
H16 H 0.2417 0.6962 0.3466
C33 C 0.3614(4) 0.9524(3) 0.0402(2)
C34 C 0.3592(3) 0.9172(3) 0.08746(16)
C35 C 0.4297(3) 0.8726(4) 0.1210(2)
H21 H 0.4803 0.8679 0.1146
C36 C 0.4262(4) 0.8348(5) 0.1637(2)
H22 H 0.4744 0.8043 0.1866
C37 C 0.3521(4) 0.8417(5) 0.1730(2)
C38 C 0.2816(3) 0.8863(4) 0.1395(2)
H23 H 0.2310 0.8910 0.1459
C39 C 0.2851(3) 0.9241(3) 0.09675(18)
H24 H 0.2369 0.9546 0.0739
O3 O 0.3111(3) 0.5968(2) 0.41918(14)
O4 O 0.4503(3) 0.5824(2) 0.43867(16)
O7 O 0.4324(3) 0.94527(19) 0.03699(13)
O8 O 0.2971(3) 0.9861(2) 0.00842(14)
N6 N 0.3730(7) 0.7805(7) 0.2158(4)
N7 N 0.3259(5) 0.8049(5) 0.2361(3)
C51 C 0.8921(4) 0.9888(3) 0.0584(2)
H33 H 0.8632 0.9538 0.0298
H34 H 0.9987 0.9991 0.0449
N16 N 0.7354(3) 0.9386(3) 0.13960(18)
C3 C 0.0212(5) 0.9106(4) 0.8585(2)
C4 C 0.1050(4) 0.9405(4) 0.8715(2)
H2 H 0.1328 0.9245 0.8500
C6 C 0.0266(5) 0.9847(4) 0.9323(2)
N1 N 0.1500(3) 0.9896(3) 0.91148(16)
O18 O 0.3111(3) 0.9032(2) 0.91918(14)
O20 O 0.4503(3) 0.9176(2) 0.93867(16)
C1 C 0.8592(4) 0.8957(4) 0.9110(2)
C2 C 0.9802(4) 0.9357(4) 0.8914(2)
H1 H 0.9931 0.8758 0.8296
C7 C 0.7823(2) 0.8372(2) 0.89281(15)
C8 C 0.7298(3) 0.8352(3) 0.91949(15)
H5 H 0.7402 0.8726 0.9471
C9 C 0.6621(3) 0.7783(3) 0.90576(17)
H6 H 0.6262 0.7769 0.9240
C10 C 0.6469(3) 0.7235(3) 0.86535(18)
H7 H 0.6006 0.6847 0.8560
C11 C 0.6994(3) 0.7256(3) 0.83867(15)
C12 C 0.7671(2) 0.7825(3) 0.85240(15)
H8 H 0.8030 0.7839 0.8342
C13 C 0.6648(4) 0.5636(3) 0.6509(2)
H9 H 0.6120 0.5447 0.6252
C14 C 0.6623(4) 0.5903(4) 0.6957(2)
H10 H 0.6109 0.5871 0.7012
C15 C 0.7357(4) 0.6211(4) 0.7315(2)
C16 C 0.8073(4) 0.6219(5) 0.7199(3)
H11 H 0.8596 0.6444 0.7442
C17 C 0.8063(5) 0.5927(5) 0.6765(3)
H12 H 0.8582 0.5940 0.6713
C18 C 0.6768(7) 0.6658(7) 0.7943(4)
N2 N 0.8980(3) 0.9028(3) 0.8789(2)
H25 H 0.8695 0.8854 0.8474
N3 N 0.7451(3) 0.6558(4) 0.7787(2)
H26 H 0.7968 0.6721 0.7998
N4 N 0.7354(3) 0.5614(3) 0.63960(18)
O1 O 0.8842(3) 0.9285(3) 0.95158(18)
O2 O 0.6062(4) 0.6367(5) 0.7731(2)
C1_2 C 0.1408(4) 0.3957(4) 0.5890(2)
C2_2 C 0.0198(4) 0.4357(4) 0.6086(2)
H1_2 H 0.0069 0.3758 0.6704
C7_2 C 0.2177(2) 0.3372(2) 0.60719(15)
C8_2 C 0.2702(3) 0.3352(3) 0.58051(15)
H5_2 H 0.2598 0.3726 0.5529
C9_2 C 0.3379(3) 0.2783(3) 0.59424(17)
H6_2 H 0.3738 0.2769 0.5760
C10_2 C 0.3531(3) 0.2235(3) 0.63465(18)
H7_2 H 0.3994 0.1847 0.6440
C11_2 C 0.3006(3) 0.2256(3) 0.66133(15)
C12_2 C 0.2329(2) 0.2825(3) 0.64760(15)
H8_2 H 0.1970 0.2839 0.6658
C13_2 C 0.3352(4) 0.0636(3) 0.8491(2)
H9_2 H 0.3880 0.0447 0.8748
C14_2 C 0.3377(4) 0.0903(4) 0.8043(2)
H10_2 H 0.3891 0.0871 0.7988
C15_2 C 0.2643(4) 0.1211(4) 0.7685(2)
C16_2 C 0.1927(4) 0.1219(5) 0.7801(3)
H11_2 H 0.1404 0.1444 0.7558
C17_2 C 0.1937(5) 0.0927(5) 0.8235(3)
H12_2 H 0.1418 0.0940 0.8287
C18_2 C 0.3232(7) 0.1658(7) 0.7057(4)
N2_2 N 0.1020(3) 0.4028(3) 0.6211(2)
H25_2 H 0.1305 0.3854 0.6526
N3_2 N 0.2549(3) 0.1558(4) 0.7213(2)
H26_2 H 0.2032 0.1721 0.7002
O1_2 O 0.1158(3) 0.4285(3) 0.54842(18)
O2_2 O 0.3938(4) 0.1367(5) 0.7269(2)
C40_2 C 0.3529(5) 0.3469(3) 0.4649(2)
C41_2 C 0.4010(2) 0.26495(15) 0.47780(17)
C42_2 C 0.4846(2) 0.25669(17) 0.48099(19)
H27_2 H 0.5153 0.3047 0.4780
C43_2 C 0.5232(2) 0.1781(2) 0.4885(2)
H28_2 H 0.5804 0.1725 0.4907
C44_2 C 0.4782(2) 0.10784(16) 0.4929(2)
C45_2 C 0.3946(2) 0.11610(16) 0.48971(19)
H29_2 H 0.3639 0.0681 0.4927
C46_2 C 0.3560(2) 0.1947(2) 0.48216(17)
H30_2 H 0.2989 0.2003 0.4800
N8_2 N 0.5223(3) 0.0311(3) 0.5013(2)
O9_2 O 0.2744(3) 0.3512(2) 0.45583(14)
O10_2 O 0.3984(2) 0.41209(19) 0.46280(12)
C3_2 C 0.9788(5) 0.4106(4) 0.6415(2)
C4_2 C 0.8950(4) 0.4405(4) 0.6285(2)
H2_2 H 0.8672 0.4245 0.6500
C5_2 C 0.8921(4) 0.5112(3) 0.5584(2)
H3_2 H 0.8632 0.5462 0.5298
C6_2 C 0.9734(5) 0.4847(4) 0.5677(2)
H4_2 H 0.9987 0.5009 0.5449
C19_2 C 0.6253(5) 0.1140(3) 0.0863(2)
C20_2 C 0.6305(4) 0.1696(4) 0.13002(16)
C21_2 C 0.5598(3) 0.1787(5) 0.1425(2)
H13_2 H 0.5054 0.1563 0.1206
C22_2 C 0.5686(4) 0.2206(5) 0.1868(3)
H14_2 H 0.5203 0.2268 0.1953
C23_2 C 0.6481(5) 0.2534(4) 0.21870(18)
C24_2 C 0.7188(4) 0.2443(3) 0.2063(2)
H15_2 H 0.7732 0.2666 0.2281
C25_2 C 0.7100(3) 0.2024(4) 0.1619(2)
H16_2 H 0.7583 0.1962 0.1534
C26_2 C 0.6471(5) 0.6531(3) 0.5351(2)
C27_2 C 0.5990(2) 0.73505(15) 0.52220(17)
C28_2 C 0.5154(2) 0.74331(17) 0.51901(19)
H17_2 H 0.4847 0.6953 0.5220
C29_2 C 0.4768(2) 0.8219(2) 0.5115(2)
H18_2 H 0.4196 0.8275 0.5093
C30_2 C 0.5218(2) 0.89216(16) 0.5071(2)
C31_2 C 0.6054(2) 0.88390(16) 0.51029(19)
H19_2 H 0.6361 0.9319 0.5073
C32_2 C 0.6440(2) 0.8053(2) 0.51784(17)
H20_2 H 0.7011 0.7997 0.5200
C33_2 C 0.6386(4) 0.4524(3) 0.4598(2)
C34_2 C 0.6408(3) 0.4172(3) 0.41254(16)
C35_2 C 0.5703(3) 0.3726(4) 0.3790(2)
H21_2 H 0.5197 0.3679 0.3854
C36_2 C 0.5738(4) 0.3348(5) 0.3363(2)
H22_2 H 0.5256 0.3043 0.3134
C37_2 C 0.6479(4) 0.3417(5) 0.3270(2)
C38_2 C 0.7184(3) 0.3863(4) 0.3605(2)
H23_2 H 0.7690 0.3910 0.3541
C39_2 C 0.7149(3) 0.4241(3) 0.40325(18)
H24_2 H 0.7631 0.4546 0.4261
N1_2 N 0.8500(3) 0.4896(3) 0.58852(16)
N5_2 N 0.4777(3) 0.9689(3) 0.4987(2)
O5_2 O 0.7256(3) 0.6488(2) 0.54417(14)
O6_2 O 0.6016(2) 0.58791(19) 0.53720(12)
O7_2 O 0.5676(3) 0.44527(19) 0.46301(13)
O8_2 O 0.7029(3) 0.4861(2) 0.49158(14)
N6_2 N 0.6270(7) 0.2805(7) 0.2842(4)
N7_2 N 0.6741(5) 0.3049(5) 0.2639(3)
C49_2 C 0.0212(5) 0.5894(4) 0.3585(2)
C50_2 C 0.1050(4) 0.5595(4) 0.3715(2)
H32_2 H 0.1328 0.5755 0.3500
C51_2 C 0.1079(4) 0.4888(3) 0.4416(2)
H33_2 H 0.1368 0.4538 0.4702
C52_2 C 0.0266(5) 0.5153(4) 0.4323(2)
H34_2 H 0.0013 0.4991 0.4551
C65_2 C 0.3747(5) 0.8860(3) 0.9137(2)
C66_2 C 0.3695(4) 0.8304(4) 0.86998(16)
C67_2 C 0.4402(3) 0.8213(5) 0.8575(2)
H43_2 H 0.4946 0.8437 0.8794
C68_2 C 0.4314(4) 0.7794(5) 0.8132(3)
H44_2 H 0.4797 0.7732 0.8047
C69_2 C 0.3519(5) 0.7466(4) 0.78130(18)
C70_2 C 0.2812(4) 0.7557(3) 0.7937(2)
H45_2 H 0.2268 0.7334 0.7719
C71_2 C 0.2900(3) 0.7976(4) 0.8381(2)
H46_2 H 0.2417 0.8038 0.8466
C72_2 C 0.3614(4) 0.5476(3) 0.5402(2)
C73_2 C 0.3592(3) 0.5828(3) 0.58746(16)
C74_2 C 0.4297(3) 0.6274(4) 0.6210(2)
H47_2 H 0.4803 0.6321 0.6146
C75_2 C 0.4262(4) 0.6652(5) 0.6637(2)
H48_2 H 0.4744 0.6957 0.6866
C76_2 C 0.3521(4) 0.6583(5) 0.6730(2)
C77_2 C 0.2816(3) 0.6137(4) 0.6395(2)
H49_2 H 0.2310 0.6090 0.6459
C78_2 C 0.2851(3) 0.5759(3) 0.59675(18)
H50_2 H 0.2369 0.5454 0.5739
N9_2 N 0.1500(3) 0.5104(3) 0.41148(16)
O15_2 O 0.4324(3) 0.55473(19) 0.53699(13)
O16_2 O 0.2971(3) 0.5139(2) 0.50842(14)
N13_2 N 0.3730(7) 0.7195(7) 0.7158(4)
N14_2 N 0.3259(5) 0.6951(5) 0.7361(3)
C47_2 C 0.8592(4) 0.6043(4) 0.4110(2)
C48_2 C 0.9802(4) 0.5643(4) 0.3914(2)
H31_2 H 0.9931 0.6242 0.3296
C53_2 C 0.7823(2) 0.6628(2) 0.39281(15)
C54_2 C 0.7298(3) 0.6648(3) 0.41949(15)
H35_2 H 0.7402 0.6274 0.4471
C55_2 C 0.6621(3) 0.7217(3) 0.40576(17)
H36_2 H 0.6262 0.7231 0.4240
C56_2 C 0.6469(3) 0.7765(3) 0.36535(18)
H37_2 H 0.6006 0.8153 0.3560
C57_2 C 0.6994(3) 0.7744(3) 0.33867(15)
C58_2 C 0.7671(2) 0.7175(3) 0.35240(15)
H38_2 H 0.8030 0.7161 0.3342
C59_2 C 0.6648(4) 0.9364(3) 0.1509(2)
H39_2 H 0.6120 0.9553 0.1252
C60_2 C 0.6623(4) 0.9097(4) 0.1957(2)
H40_2 H 0.6109 0.9129 0.2012
C61_2 C 0.7357(4) 0.8789(4) 0.2315(2)
C62_2 C 0.8073(4) 0.8781(5) 0.2199(3)
H41_2 H 0.8596 0.8556 0.2442
C63_2 C 0.8063(5) 0.9073(5) 0.1765(3)
H42_2 H 0.8582 0.9060 0.1713
C64_2 C 0.6768(7) 0.8342(7) 0.2943(4)
N10_2 N 0.8980(3) 0.5972(3) 0.3789(2)
H51_2 H 0.8695 0.6146 0.3474
N11_2 N 0.7451(3) 0.8442(4) 0.2787(2)
H52_2 H 0.7968 0.8279 0.2998
O11_2 O 0.8842(3) 0.5715(3) 0.45158(18)
O12_2 O 0.6062(4) 0.8633(5) 0.2731(2)
loop_
_geom_bond_atom_site_label_1
_geom_bond_atom_site_label_2
_geom_bond_site_symmetry_1
_geom_bond_site_symmetry_2
C47 C53 1_555 1_555
C53 C54 1_555 1_555
C54 H35 1_555 1_555
C55 C54 1_555 1_555
H36 C55 1_555 1_555
C56 C55 1_555 1_555
H37 C56 1_555 1_555
C57 C56 1_555 1_555
C58 C53 1_555 1_555
H38 C58 1_555 1_555
C59 H39 1_555 1_555
C60 C59 1_555 1_555
H40 C60 1_555 1_555
C61 C60 1_555 1_555
C62 C61 1_555 1_555
H41 C62 1_555 1_555
C63 C62 1_555 1_555
H42 C63 1_555 1_555
C64 C57 1_555 1_555
N10 C47 1_555 1_555
H51 N10 1_555 1_555
N11 C61 1_555 1_555
H52 N11 1_555 1_555
N12 C59 1_555 1_555
O11 C47 1_555 1_555
O12 C64 1_555 1_555
Co8 N12 1_555 1_555
C48 N10 1_555 1_555
C57 C58 1_555 1_555
C63 N12 1_555 1_555
C64 N11 1_555 1_555
C40 C41 1_555 1_555
C41 C42 1_555 1_555
C42 H27 1_555 1_555
C43 C42 1_555 1_555
H28 C43 1_555 1_555
C44 C43 1_555 1_555
C45 C44 1_555 1_555
H29 C45 1_555 1_555
C46 C41 1_555 1_555
H30 C46 1_555 1_555
O9 C40 1_555 1_555
O10 C40 1_555 1_555
C50 C49 1_555 1_555
H32 C50 1_555 1_555
N9 C50 1_555 1_555
Co6 O9 1_555 1_555
Co9_3 O10 1_555 1_555
O19 Co9 1_555 1_555
C45 C46 1_555 1_555
O10 Co6 1_555 1_555
C5 H3 1_555 1_555
C26 C27 1_555 1_555
C27 C28 1_555 1_555
C28 H17 1_555 1_555
C29 C28 1_555 1_555
H18 C29 1_555 1_555
C30 C29 1_555 1_555
C31 C30 1_555 1_555
H19 C31 1_555 1_555
C32 C27 1_555 1_555
H20 C32 1_555 1_555
Co9_2 O6 1_555 1_555
O5 C26 1_555 1_555
O6 C26 1_555 1_555
C65 C66 1_555 1_555
C66 C67 1_555 1_555
C67 H43 1_555 1_555
C68 C67 1_555 1_555
H44 C68 1_555 1_555
C69 C68 1_555 1_555
C70 C69 1_555 1_555
H45 C70 1_555 1_555
C71 C66 1_555 1_555
H46 C71 1_555 1_555
C72 C73 1_555 1_555
C73 C74 1_555 1_555
C74 H47 1_555 1_555
C75 C74 1_555 1_555
H48 C75 1_555 1_555
C76 C75 1_555 1_555
C77 C76 1_555 1_555
H49 C77 1_555 1_555
C78 C73 1_555 1_555
H50 C78 1_555 1_555
O13 C65 1_555 1_555
O14 C65 1_555 1_555
O15 Co9_2 1_555 1_555
O16 C72 1_555 1_555
N13 C76 1_555 1_555
N14 C69 1_555 1_555
Co5 O13 1_555 1_555
Co11 O14 1_555 1_555
N15 Co1 1_555 1_555
C31 C32 1_555 1_555
Co1 O5 1_555 1_555
Co1 O6 1_555 1_555
C70 C71 1_555 1_555
C72 O15 1_555 1_555
C77 C78 1_555 1_555
N13 N14 1_555 1_555
C19 C20 1_555 1_555
C20 C21 1_555 1_555
C21 H13 1_555 1_555
C22 C21 1_555 1_555
H14 C22 1_555 1_555
C23 C22 1_555 1_555
C24 C23 1_555 1_555
H15 C24 1_555 1_555
C25 C20 1_555 1_555
H16 C25 1_555 1_555
C33 C34 1_555 1_555
C34 C35 1_555 1_555
C35 H21 1_555 1_555
C36 C35 1_555 1_555
H22 C36 1_555 1_555
C37 C36 1_555 1_555
C38 C37 1_555 1_555
H23 C38 1_555 1_555
C39 C34 1_555 1_555
H24 C39 1_555 1_555
O3 C19 1_555 1_555
O4 C19 1_555 1_555
O7 C33 1_555 1_555
O8 C33 1_555 1_555
N6 C37 1_555 1_555
N7 C23 1_555 1_555
C51 H33 1_555 1_555
Co8 O3 1_555 1_555
Co11 O4 1_555 1_555
N16 Co6 1_555 1_555
C24 C25 1_555 1_555
C38 C39 1_555 1_555
Co9_3 O7 1_555 1_555
N6 N7 1_555 1_555
C4 C3 1_555 1_555
H2 C4 1_555 1_555
N1 C4 1_555 1_555
O20 Co9_4 1_555 1_555
C1 C7 1_555 1_555
C7 C8 1_555 1_555
C8 H5 1_555 1_555
C9 C8 1_555 1_555
H6 C9 1_555 1_555
C10 C9 1_555 1_555
H7 C10 1_555 1_555
C11 C10 1_555 1_555
C12 C7 1_555 1_555
H8 C12 1_555 1_555
C13 H9 1_555 1_555
C14 C13 1_555 1_555
H10 C14 1_555 1_555
C15 C14 1_555 1_555
C16 C15 1_555 1_555
H11 C16 1_555 1_555
C17 C16 1_555 1_555
H12 C17 1_555 1_555
C18 C11 1_555 1_555
N2 C1 1_555 1_555
H25 N2 1_555 1_555
N3 C15 1_555 1_555
H26 N3 1_555 1_555
N4 C13 1_555 1_555
O1 C1 1_555 1_555
O2 C18 1_555 1_555
Co5 N4 1_555 1_555
C2 N2 1_555 1_555
C11 C12 1_555 1_555
C17 N4 1_555 1_555
C18 N3 1_555 1_555
C1_2 C7_2 1_555 1_555
C7_2 C8_2 1_555 1_555
C8_2 H5_2 1_555 1_555
C9_2 C8_2 1_555 1_555
H6_2 C9_2 1_555 1_555
C10_2 C9_2 1_555 1_555
H7_2 C10_2 1_555 1_555
C11_2 C10_2 1_555 1_555
C12_2 C7_2 1_555 1_555
H8_2 C12_2 1_555 1_555
C13_2 H9_2 1_555 1_555
C14_2 C13_2 1_555 1_555
H10_2 C14_2 1_555 1_555
C15_2 C14_2 1_555 1_555
C16_2 C15_2 1_555 1_555
H11_2 C16_2 1_555 1_555
C17_2 C16_2 1_555 1_555
H12_2 C17_2 1_555 1_555
C18_2 C11_2 1_555 1_555
N2_2 C1_2 1_555 1_555
H25_2 N2_2 1_555 1_555
N3_2 C15_2 1_555 1_555
H26_2 N3_2 1_555 1_555
N15 C13_2 1_555 1_555
O1_2 C1_2 1_555 1_555
O2_2 C18_2 1_555 1_555
C2_2 N2_2 1_555 1_555
C11_2 C12_2 1_555 1_555
C17_2 N15 1_555 1_555
C18_2 N3_2 1_555 1_555
C40_2 C41_2 1_555 1_555
C41_2 C42_2 1_555 1_555
C42_2 H27_2 1_555 1_555
C43_2 C42_2 1_555 1_555
H28_2 C43_2 1_555 1_555
C44_2 C43_2 1_555 1_555
C45_2 C44_2 1_555 1_555
H29_2 C45_2 1_555 1_555
C46_2 C41_2 1_555 1_555
H30_2 C46_2 1_555 1_555
O9_2 C40_2 1_555 1_555
O10_2 C40_2 1_555 1_555
Co8 O9_2 1_555 1_555
Co11 O10_2 1_555 1_555
C44_2 N8_2 1_555 1_555
C45_2 C46_2 1_555 1_555
O10_2 Co8 1_555 1_555
C4_2 C3_2 1_555 1_555
H2_2 C4_2 1_555 1_555
C5_2 H3_2 1_555 1_555
H4_2 C6_2 1_555 1_555
C19_2 C20_2 1_555 1_555
C20_2 C21_2 1_555 1_555
C21_2 H13_2 1_555 1_555
C22_2 C21_2 1_555 1_555
H14_2 C22_2 1_555 1_555
C23_2 C22_2 1_555 1_555
C24_2 C23_2 1_555 1_555
H15_2 C24_2 1_555 1_555
C25_2 C20_2 1_555 1_555
H16_2 C25_2 1_555 1_555
C26_2 C27_2 1_555 1_555
C27_2 C28_2 1_555 1_555
C28_2 H17_2 1_555 1_555
C29_2 C28_2 1_555 1_555
H18_2 C29_2 1_555 1_555
C30_2 C29_2 1_555 1_555
C31_2 C30_2 1_555 1_555
H19_2 C31_2 1_555 1_555
C32_2 C27_2 1_555 1_555
H20_2 C32_2 1_555 1_555
C33_2 C34_2 1_555 1_555
C34_2 C35_2 1_555 1_555
C35_2 H21_2 1_555 1_555
C36_2 C35_2 1_555 1_555
H22_2 C36_2 1_555 1_555
C37_2 C36_2 1_555 1_555
C38_2 C37_2 1_555 1_555
H23_2 C38_2 1_555 1_555
C39_2 C34_2 1_555 1_555
H24_2 C39_2 1_555 1_555
Co5 N1_2 1_555 1_555
Co11 O6_2 1_555 1_555
N1_2 C4_2 1_555 1_555
N5_2 C30_2 1_555 1_555
O17 C19_2 1_555 1_555
O19 C19_2 1_555 1_555
O5_2 C26_2 1_555 1_555
O6_2 C26_2 1_555 1_555
O7_2 C33_2 1_555 1_555
O8_2 C33_2 1_555 1_555
N6_2 C37_2 1_555 1_555
N7_2 C23_2 1_555 1_555
C50_2 C49_2 1_555 1_555
H32_2 C50_2 1_555 1_555
C51_2 H33_2 1_555 1_555
H34_2 C52_2 1_555 1_555
C65_2 C66_2 1_555 1_555
C66_2 C67_2 1_555 1_555
C67_2 H43_2 1_555 1_555
C68_2 C67_2 1_555 1_555
H44_2 C68_2 1_555 1_555
C69_2 C68_2 1_555 1_555
C70_2 C69_2 1_555 1_555
H45_2 C70_2 1_555 1_555
C71_2 C66_2 1_555 1_555
H46_2 C71_2 1_555 1_555
C72_2 C73_2 1_555 1_555
C73_2 C74_2 1_555 1_555
C74_2 H47_2 1_555 1_555
C75_2 C74_2 1_555 1_555
H48_2 C75_2 1_555 1_555
C76_2 C75_2 1_555 1_555
C77_2 C76_2 1_555 1_555
H49_2 C77_2 1_555 1_555
C78_2 C73_2 1_555 1_555
H50_2 C78_2 1_555 1_555
Co8 N9_2 1_555 1_555
N9_2 C50_2 1_555 1_555
O18 C65_2 1_555 1_555
O20 C65_2 1_555 1_555
O15_2 Co11 1_555 1_555
O16_2 C72_2 1_555 1_555
N13_2 C76_2 1_555 1_555
N14_2 C69_2 1_555 1_555
C5_2 C6_2 1_555 1_555
C5_2 N1_2 1_555 1_555
C24_2 C25_2 1_555 1_555
C31_2 C32_2 1_555 1_555
C38_2 C39_2 1_555 1_555
Co5 O5_2 1_555 1_555
Co5 O6_2 1_555 1_555
Co5 O8_2 1_555 1_555
Co11 O7_2 1_555 1_555
N6_2 N7_2 1_555 1_555
C51_2 C52_2 1_555 1_555
C51_2 N9_2 1_555 1_555
C70_2 C71_2 1_555 1_555
C72_2 O15_2 1_555 1_555
C77_2 C78_2 1_555 1_555
Co8 O16_2 1_555 1_555
N13_2 N14_2 1_555 1_555
C47_2 C53_2 1_555 1_555
C53_2 C54_2 1_555 1_555
C54_2 H35_2 1_555 1_555
C55_2 C54_2 1_555 1_555
H36_2 C55_2 1_555 1_555
C56_2 C55_2 1_555 1_555
H37_2 C56_2 1_555 1_555
C57_2 C56_2 1_555 1_555
C58_2 C53_2 1_555 1_555
H38_2 C58_2 1_555 1_555
C59_2 H39_2 1_555 1_555
C60_2 C59_2 1_555 1_555
H40_2 C60_2 1_555 1_555
C61_2 C60_2 1_555 1_555
C62_2 C61_2 1_555 1_555
H41_2 C62_2 1_555 1_555
C63_2 C62_2 1_555 1_555
H42_2 C63_2 1_555 1_555
C64_2 C57_2 1_555 1_555
N10_2 C47_2 1_555 1_555
H51_2 N10_2 1_555 1_555
N11_2 C61_2 1_555 1_555
H52_2 N11_2 1_555 1_555
N16 C59_2 1_555 1_555
O11_2 C47_2 1_555 1_555
O12_2 C64_2 1_555 1_555
C48_2 N10_2 1_555 1_555
C57_2 C58_2 1_555 1_555
C63_2 N16 1_555 1_555
C64_2 N11_2 1_555 1_555

#END
