
###############################################################################
#
# This file contains modified crystal structure data generated from the
# MOF subset of the Cambridge Structural Database (CSD) v543 
# hosted by the Cambridge Crystallographic Data Centre (CCDC).
#
# This work is licensed under the Creative Commons
# Attribution-NonCommercial-ShareAlike 4.0 International License.
# To view a copy of this license, visit
# http://creativecommons.org/licenses/by-nc-sa/4.0/
# or send a letter to
# Creative Commons, PO Box 1866, Mountain View, CA 94042, USA.
#
# CIF created using the CSD Python API on 29 September 2022
# The structure has been converted into the P1 space group
# The structure has a 3D framework
# The original CSD entry ZAHLOM is in the monoclinic crystal system
# The framework has been calculated to contain at least 10.0% void space
# The void calculation uses a probe of radius 1.32A, grid spacing 0.4
# H atom positions have been added when not included in the experimental data
# Generated hydrogen atom positions removed from atoms on special positions
#
###############################################################################

data_ZAHLOM
_chemical_formula_moiety         '(C132 H108 Cu6 N8 O32 S4)n'
_symmetry_cell_setting           triclinic
_symmetry_space_group_name_H-M   'P 1'
_symmetry_Int_Tables_number      1
_space_group_name_Hall           'P 1'
loop_
_symmetry_equiv_pos_site_id
_symmetry_equiv_pos_as_xyz
1 x,y,z
_cell_length_a                   19.5016(16)
_cell_length_b                   21.8113(19)
_cell_length_c                   19.7468(17)
_cell_angle_alpha                90
_cell_angle_beta                 112.517(4)
_cell_angle_gamma                90
_cell_volume                     7759.08
loop_
_atom_site_label
_atom_site_type_symbol
_atom_site_fract_x
_atom_site_fract_y
_atom_site_fract_z
Cu9 Cu 0.03971(3) 0.39346(3) 0.20867(3)
O2 O 0.0319(2) 0.33532(17) 0.3538(2)
O5 O 0.0890(2) 0.32404(17) 0.2755(2)
C12 C 0.0785(3) 0.3109(2) 0.3318(3)
C15 C 0.1272(3) 0.2614(3) 0.3789(4)
C16 C 0.3602(3) 0.0045(3) 0.5735(4)
H9 H 0.3454 0.0035 0.5218
C20 C 0.2187(4) 0.1679(4) 0.4608(5)
C21 C 0.1204(4) 0.2437(4) 0.4424(4)
H12 H 0.0842 0.2618 0.4575
C23 C 0.3343(4) 0.0508(3) 0.6049(4)
C24 C 0.4060(4) 0.0034(3) 0.7191(3)
H14 H 0.4237 0.0042 0.7711
C26 C 0.1740(4) 0.2279(3) 0.3554(5)
H16 H 0.1757 0.2379 0.3093
C28 C 0.2826(6) 0.1001(4) 0.5659(5)
H18 H 0.2598 0.1228 0.5927
C29 C 0.2170(5) 0.1823(4) 0.3939(6)
H19 H 0.2466 0.1598 0.3740
C30 C 0.1688(6) 0.1976(4) 0.4852(5)
H20 H 0.1673 0.1866 0.5312
C31 C 0.3568(5) 0.0497(4) 0.6813(4)
H21 H 0.3394 0.0792 0.7063
C33 C 0.2666(5) 0.1145(4) 0.5012(4)
H23 H 0.2863 0.0893 0.4738
C36 C 0.4278(5) 0.0282(3) 0.9093(4)
H24 H 0.3883 0.0124 0.8677
C37 C 0.4977(5) 0.1136(3) 0.9783(4)
H25 H 0.5064 0.1566 0.9819
C38 C 0.4430(6) 0.0893(4) 0.9155(4)
H26 H 0.4159 0.1159 0.8763
O14 O 0.1055(2) 0.38980(18) 0.1428(2)
O17 O 0.10477(18) 0.45086(17) 0.2802(2)
O19 O 0.02869(19) 0.46189(16) 0.3405(2)
Cu1 Cu 0.5000 0.89349(4) 0.7500
S1 S 0.39726(9) 0.88921(7) 0.87992(9)
N1 N 0.4310(2) 0.82830(17) 0.6893(2)
O4 O 0.4322(2) 0.89784(17) 0.82943(19)
N2 N 0.4302(2) 0.95845(18) 0.6892(2)
O7 O 0.3979(3) 0.8242(2) 0.8986(3)
C1 C 0.1384(3) 0.5206(3) 0.3768(3)
C2 C 0.2374(4) 0.6074(3) 0.4683(4)
C3 C 0.3612(3) 0.8244(3) 0.6861(3)
H1 H 0.3452 0.8528 0.7135
C4 C 0.3334(3) 0.7383(3) 0.6035(3)
C5 C 0.4522(3) 0.7891(3) 0.6492(3)
H2 H 0.5009 0.7923 0.6496
C6 C 0.4743(4) 0.9862(3) 0.9692(3)
C7 C 0.4044(3) 0.7431(3) 0.6061(3)
H3 H 0.4215 0.7154 0.5789
O8 O 0.3261(3) 0.9175(3) 0.8603(4)
C8 C 0.1220(3) 0.5498(3) 0.4313(3)
H4 H 0.0780 0.5399 0.4389
C9 C 0.3104(3) 0.7798(3) 0.6437(3)
H5 H 0.2613 0.7783 0.6426
C10 C 0.4070(3) 0.9599(3) 0.6152(3)
H6 H 0.4236 0.9289 0.5913
C11 C 0.1705(4) 0.5934(3) 0.4743(4)
H7 H 0.1575 0.6148 0.5096
C13 C 0.0861(3) 0.4739(2) 0.3282(3)
C14 C 0.2513(4) 0.5801(4) 0.4121(4)
H8 H 0.2942 0.5915 0.4032
C17 C 0.2795(4) 0.6919(3) 0.5604(3)
H10 H 0.2341 0.6887 0.5674
C18 C 0.2899(4) 0.6545(3) 0.5127(4)
H11 H 0.3355 0.6583 0.5062
C19 C 0.4607(4) 0.9241(3) 0.9646(3)
C25 C 0.2030(3) 0.5357(3) 0.3678(4)
H15 H 0.2149 0.5157 0.3309
N4 N 0.5690(2) 0.82830(17) 0.8107(2)
C55 C 0.6388(3) 0.8244(3) 0.8139(3)
H37 H 0.6548 0.8528 0.7865
C56 C 0.6666(3) 0.7383(3) 0.8965(3)
C57 C 0.5478(3) 0.7891(3) 0.8508(3)
H38 H 0.4991 0.7923 0.8504
C58 C 0.5956(3) 0.7431(3) 0.8939(3)
H39 H 0.5785 0.7154 0.9211
C60 C 0.6896(3) 0.7798(3) 0.8563(3)
H41 H 0.7387 0.7783 0.8574
H42 H 0.8425 0.6148 0.9904
C64 C 0.7205(4) 0.6919(3) 0.9396(3)
H44 H 0.7659 0.6887 0.9326
C65 C 0.7101(4) 0.6545(3) 0.9873(4)
H45 H 0.6645 0.6583 0.9938
O21 O 0.5678(2) 0.89784(17) 0.67057(19)
N5 N 0.5698(2) 0.95845(18) 0.8108(2)
C39 C 0.5930(3) 0.9599(3) 0.8848(3)
H27 H 0.5764 0.9289 0.9087
S1_2 S 0.60274(9) 0.88921(7) 0.62008(9)
O7_2 O 0.6021(3) 0.8242(2) 0.6014(3)
C6_2 C 0.5257(4) 0.9862(3) 0.5308(3)
O8_2 O 0.6739(3) 0.9175(3) 0.6397(4)
C19_2 C 0.5393(4) 0.9241(3) 0.5354(3)
C22 C 0.4278(5) 0.9718(3) 0.4093(4)
H13 H 0.3883 0.9876 0.3677
C27 C 0.4977(5) 0.8864(3) 0.4783(4)
H17 H 0.5064 0.8434 0.4819
C32 C 0.4430(6) 0.9107(4) 0.4155(4)
H22 H 0.4159 0.8841 0.3763
Cu6 Cu 0.03971(3) 0.60654(3) 0.70867(3)
C42 C 0.3602(3) 0.9955(3) 0.0735(4)
H28 H 0.3454 0.9965 0.0218
C45 C 0.3343(4) 0.9492(3) 0.1049(4)
C46 C 0.4060(4) 0.9966(3) 0.2191(3)
H30 H 0.4237 0.9958 0.2711
C48 C 0.2826(6) 0.8999(4) 0.0659(5)
H32 H 0.2598 0.8772 0.0927
H34 H 0.1673 0.8134 0.0312
C51 C 0.3568(5) 0.9503(4) 0.1813(4)
H35 H 0.3394 0.9208 0.2063
C52 C 0.2666(5) 0.8855(4) 0.0012(4)
O6 O 0.1055(2) 0.61020(18) 0.6428(2)
O12 O 0.0319(2) 0.66468(17) 0.8538(2)
O13 O 0.0890(2) 0.67596(17) 0.7755(2)
C40 C 0.0785(3) 0.6891(2) 0.8318(3)
C41 C 0.1272(3) 0.7386(3) 0.8789(4)
C43 C 0.2187(4) 0.8321(4) 0.9608(5)
C44 C 0.1204(4) 0.7563(4) 0.9424(4)
H29 H 0.0842 0.7382 0.9575
C47 C 0.1740(4) 0.7721(3) 0.8554(5)
H31 H 0.1757 0.7621 0.8093
C49 C 0.2170(5) 0.8177(4) 0.8939(6)
H33 H 0.2466 0.8402 0.8740
C50 C 0.1688(6) 0.8024(4) 0.9852(5)
H36 H 0.2863 0.9107 0.9738
O18 O 0.10477(18) 0.54914(17) 0.7802(2)
O20 O 0.02869(19) 0.53811(16) 0.8405(2)
C53 C 0.1384(3) 0.4794(3) 0.8768(3)
C54 C 0.2374(4) 0.3926(3) 0.9683(4)
C59 C 0.1220(3) 0.4502(3) 0.9313(3)
H40 H 0.0780 0.4601 0.9389
C61 C 0.1705(4) 0.4066(3) 0.9743(4)
C62 C 0.0861(3) 0.5261(2) 0.8282(3)
C63 C 0.2513(4) 0.4199(4) 0.9121(4)
H43 H 0.2942 0.4085 0.9032
C66 C 0.2030(3) 0.4643(3) 0.8678(4)
H46 H 0.2149 0.4843 0.8309
S2 S 0.60274(9) 0.11079(7) 0.12008(9)
O9 O 0.5678(2) 0.10216(17) 0.17057(19)
O10 O 0.6021(3) 0.1758(2) 0.1014(3)
C34 C 0.5257(4) 0.0138(3) 0.0308(3)
O11 O 0.6739(3) 0.0825(3) 0.1397(4)
C35 C 0.5393(4) 0.0759(3) 0.0354(3)
Cu5 Cu 0.5000 0.10651(4) 0.2500
C22_2 C 0.5722(5) 0.9718(3) 0.0907(4)
H13_2 H 0.6117 0.9876 0.1323
C27_2 C 0.5023(5) 0.8864(3) 0.0217(4)
H17_2 H 0.4936 0.8434 0.0181
C32_2 C 0.5570(6) 0.9107(4) 0.0845(4)
H22_2 H 0.5841 0.8841 0.1237
O15 O 0.89523(18) 0.45086(17) 0.2198(2)
O16 O 0.97131(19) 0.46189(16) 0.1595(2)
C53_2 C 0.8616(3) 0.5206(3) 0.1232(3)
C54_2 C 0.7626(4) 0.6074(3) 0.0317(4)
C59_2 C 0.8780(3) 0.5498(3) 0.0687(3)
H40_2 H 0.9220 0.5399 0.0611
C61_2 C 0.8295(4) 0.5934(3) 0.0257(4)
C62_2 C 0.9139(3) 0.4739(2) 0.1718(3)
C63_2 C 0.7487(4) 0.5801(4) 0.0879(4)
H43_2 H 0.7058 0.5915 0.0968
C66_2 C 0.7970(3) 0.5357(3) 0.1322(4)
H46_2 H 0.7851 0.5157 0.1691
Cu7 Cu 0.96029(3) 0.39346(3) 0.29133(3)
O6_2 O 0.8945(2) 0.38980(18) 0.3572(2)
O12_2 O 0.9681(2) 0.33532(17) 0.1462(2)
O13_2 O 0.9110(2) 0.32404(17) 0.2245(2)
C40_2 C 0.9215(3) 0.3109(2) 0.1682(3)
C41_2 C 0.8728(3) 0.2614(3) 0.1211(4)
C43_2 C 0.7813(4) 0.1679(4) 0.0392(5)
C44_2 C 0.8796(4) 0.2437(4) 0.0576(4)
H29_2 H 0.9158 0.2618 0.0425
C47_2 C 0.8260(4) 0.2279(3) 0.1446(5)
H31_2 H 0.8243 0.2379 0.1907
C49_2 C 0.7830(5) 0.1823(4) 0.1061(6)
H33_2 H 0.7534 0.1598 0.1260
C50_2 C 0.8312(6) 0.1976(4) 0.0148(5)
H36_2 H 0.7137 0.0893 0.0262
C42_2 C 0.6398(3) 0.0045(3) 0.9265(4)
H28_2 H 0.6546 0.0035 0.9782
C45_2 C 0.6657(4) 0.0508(3) 0.8951(4)
C46_2 C 0.5940(4) 0.0034(3) 0.7809(3)
H30_2 H 0.5763 0.0042 0.7289
C48_2 C 0.7174(6) 0.1001(4) 0.9341(5)
H32_2 H 0.7402 0.1228 0.9073
H34_2 H 0.8327 0.1866 0.9688
C51_2 C 0.6432(5) 0.0497(4) 0.8187(4)
H35_2 H 0.6606 0.0792 0.7937
C52_2 C 0.7334(5) 0.1145(4) 0.9988(4)
S2_2 S 0.39726(9) 0.11079(7) 0.37992(9)
O9_2 O 0.4322(2) 0.10216(17) 0.32943(19)
O10_2 O 0.3979(3) 0.1758(2) 0.3986(3)
C34_2 C 0.4743(4) 0.0138(3) 0.4692(3)
O11_2 O 0.3261(3) 0.0825(3) 0.3603(4)
C35_2 C 0.4607(4) 0.0759(3) 0.4646(3)
C36_2 C 0.5722(5) 0.0282(3) 0.5907(4)
H24_2 H 0.6117 0.0124 0.6323
C37_2 C 0.5023(5) 0.1136(3) 0.5217(4)
H25_2 H 0.4936 0.1566 0.5181
C38_2 C 0.5570(6) 0.0893(4) 0.5845(4)
H26_2 H 0.5841 0.1159 0.6237
N3 N 0.4302(2) 0.04155(18) 0.1892(2)
C39_2 C 0.4070(3) 0.0401(3) 0.1152(3)
H27_2 H 0.4236 0.0711 0.0913
N1_2 N 0.5690(2) 0.17170(17) 0.3107(2)
O1 O 0.89523(18) 0.54914(17) 0.7198(2)
O3 O 0.97131(19) 0.53811(16) 0.6595(2)
N2_2 N 0.5698(2) 0.04155(18) 0.3108(2)
C1_2 C 0.8616(3) 0.4794(3) 0.6232(3)
C2_2 C 0.7626(4) 0.3926(3) 0.5317(4)
C3_2 C 0.6388(3) 0.1756(3) 0.3139(3)
H1_2 H 0.6548 0.1472 0.2865
C4_2 C 0.6666(3) 0.2617(3) 0.3965(3)
C5_2 C 0.5478(3) 0.2109(3) 0.3508(3)
H2_2 H 0.4991 0.2077 0.3504
C7_2 C 0.5956(3) 0.2569(3) 0.3939(3)
H3_2 H 0.5785 0.2846 0.4211
C8_2 C 0.8780(3) 0.4502(3) 0.5687(3)
H4_2 H 0.9220 0.4601 0.5611
C9_2 C 0.6896(3) 0.2202(3) 0.3563(3)
H5_2 H 0.7387 0.2217 0.3574
C10_2 C 0.5930(3) 0.0401(3) 0.3848(3)
H6_2 H 0.5764 0.0711 0.4087
C11_2 C 0.8295(4) 0.4066(3) 0.5257(4)
H7_2 H 0.8425 0.3852 0.4904
C13_2 C 0.9139(3) 0.5261(2) 0.6718(3)
C14_2 C 0.7487(4) 0.4199(4) 0.5879(4)
H8_2 H 0.7058 0.4085 0.5968
C17_2 C 0.7205(4) 0.3081(3) 0.4396(3)
H10_2 H 0.7659 0.3113 0.4326
C18_2 C 0.7101(4) 0.3455(3) 0.4873(4)
H11_2 H 0.6645 0.3417 0.4938
C25_2 C 0.7970(3) 0.4643(3) 0.6322(4)
H15_2 H 0.7851 0.4843 0.6691
N4_2 N 0.4310(2) 0.17170(17) 0.1893(2)
C55_2 C 0.3612(3) 0.1756(3) 0.1861(3)
H37_2 H 0.3452 0.1472 0.2135
C56_2 C 0.3334(3) 0.2617(3) 0.1035(3)
C57_2 C 0.4522(3) 0.2109(3) 0.1492(3)
H38_2 H 0.5009 0.2077 0.1496
C58_2 C 0.4044(3) 0.2569(3) 0.1061(3)
H39_2 H 0.4215 0.2846 0.0789
C60_2 C 0.3104(3) 0.2202(3) 0.1437(3)
H41_2 H 0.2613 0.2217 0.1426
H42_2 H 0.1575 0.3852 0.0096
C64_2 C 0.2795(4) 0.3081(3) 0.0604(3)
H44_2 H 0.2341 0.3113 0.0674
C65_2 C 0.2899(4) 0.3455(3) 0.0127(4)
H45_2 H 0.3355 0.3417 0.0062
Cu8 Cu 0.96029(3) 0.60654(3) 0.79133(3)
O2_2 O 0.9681(2) 0.66468(17) 0.6462(2)
O5_2 O 0.9110(2) 0.67596(17) 0.7245(2)
C12_2 C 0.9215(3) 0.6891(2) 0.6682(3)
C15_2 C 0.8728(3) 0.7386(3) 0.6211(4)
C16_2 C 0.6398(3) 0.9955(3) 0.4265(4)
H9_2 H 0.6546 0.9965 0.4782
C20_2 C 0.7813(4) 0.8321(4) 0.5392(5)
C21_2 C 0.8796(4) 0.7563(4) 0.5576(4)
H12_2 H 0.9158 0.7382 0.5425
C23_2 C 0.6657(4) 0.9492(3) 0.3951(4)
C24_2 C 0.5940(4) 0.9966(3) 0.2809(3)
H14_2 H 0.5763 0.9958 0.2289
C26_2 C 0.8260(4) 0.7721(3) 0.6446(5)
H16_2 H 0.8243 0.7621 0.6907
C28_2 C 0.7174(6) 0.8999(4) 0.4341(5)
H18_2 H 0.7402 0.8772 0.4073
C29_2 C 0.7830(5) 0.8177(4) 0.6061(6)
H19_2 H 0.7534 0.8402 0.6260
C30_2 C 0.8312(6) 0.8024(4) 0.5148(5)
H20_2 H 0.8327 0.8134 0.4688
C31_2 C 0.6432(5) 0.9503(4) 0.3187(4)
H21_2 H 0.6606 0.9208 0.2937
C33_2 C 0.7334(5) 0.8855(4) 0.4988(4)
H23_2 H 0.7137 0.9107 0.5262
O14_2 O 0.8945(2) 0.61020(18) 0.8572(2)
loop_
_geom_bond_atom_site_label_1
_geom_bond_atom_site_label_2
_geom_bond_site_symmetry_1
_geom_bond_site_symmetry_2
O2 C12 1_555 1_555
O5 C12 1_555 1_555
C12 C15 1_555 1_555
C15 C21 1_555 1_555
H9 C16 1_555 1_555
C20 C29 1_555 1_555
C21 H12 1_555 1_555
C23 C16 1_555 1_555
H14 C24 1_555 1_555
C26 C15 1_555 1_555
H16 C26 1_555 1_555
C28 C23 1_555 1_555
H18 C28 1_555 1_555
C29 C26 1_555 1_555
H19 C29 1_555 1_555
C30 C20 1_555 1_555
H20 C30 1_555 1_555
C31 C23 1_555 1_555
H21 C31 1_555 1_555
C33 C20 1_555 1_555
H23 C33 1_555 1_555
H24 C36 1_555 1_555
H25 C37 1_555 1_555
C38 C36 1_555 1_555
H26 C38 1_555 1_555
O14 Cu9 1_555 1_555
O17 Cu9 1_555 1_555
O5 Cu9 1_555 1_555
C21 C30 1_555 1_555
C24 C31 1_555 1_555
C28 C33 1_555 1_555
C37 C38 1_555 1_555
Cu1 N1 1_555 1_555
S1 O4 1_555 1_555
N1 C3 1_555 1_555
O17 C13 1_555 1_555
O19 C13 1_555 1_555
O4 Cu1 1_555 1_555
N2 Cu1 1_555 1_555
O7 S1 1_555 1_555
C1 C8 1_555 1_555
C2 C11 1_555 1_555
C3 H1 1_555 1_555
C4 C7 1_555 1_555
C5 N1 1_555 1_555
H2 C5 1_555 1_555
C6 C19 1_555 1_555
C7 C5 1_555 1_555
H3 C7 1_555 1_555
O8 S1 1_555 1_555
C8 H4 1_555 1_555
C9 C3 1_555 1_555
H5 C9 1_555 1_555
C10 N2 1_555 1_555
H6 C10 1_555 1_555
C11 C8 1_555 1_555
H7 C11 1_555 1_555
C13 C1 1_555 1_555
C14 C2 1_555 1_555
H8 C14 1_555 1_555
C17 C4 1_555 1_555
H10 C17 1_555 1_555
C18 C2 1_555 1_555
H11 C18 1_555 1_555
C19 S1 1_555 1_555
C25 C1 1_555 1_555
H15 C25 1_555 1_555
N4 Cu1 1_555 1_555
C55 N4 1_555 1_555
H37 C55 1_555 1_555
C56 C58 1_555 1_555
C57 N4 1_555 1_555
H38 C57 1_555 1_555
C58 C57 1_555 1_555
H39 C58 1_555 1_555
C60 C55 1_555 1_555
H41 C60 1_555 1_555
C64 C56 1_555 1_555
H44 C64 1_555 1_555
H45 C65 1_555 1_555
O21 Cu1 1_555 1_555
N5 Cu1 1_555 1_555
C4 C9 1_555 1_555
C14 C25 1_555 1_555
C17 C18 1_555 1_555
C56 C60 1_555 1_555
C64 C65 1_555 1_555
N5 C39 1_555 1_555
C39 H27 1_555 1_555
S1_2 O21 1_555 1_555
O7_2 S1_2 1_555 1_555
C6_2 C19_2 1_555 1_555
O8_2 S1_2 1_555 1_555
C19_2 S1_2 1_555 1_555
C22 H13 1_555 1_555
C27 C19_2 1_555 1_555
H17 C27 1_555 1_555
C32 C22 1_555 1_555
H22 C32 1_555 1_555
C27 C32 1_555 1_555
H28 C42 1_555 1_555
C45 C42 1_555 1_555
H30 C46 1_555 1_555
C48 C45 1_555 1_555
H32 C48 1_555 1_555
C51 C45 1_555 1_555
H35 C51 1_555 1_555
C46 C51 1_555 1_555
C48 C52 1_555 1_555
O6 Cu6 1_555 1_555
O13 Cu6 1_555 1_555
C40 O12 1_555 1_555
C41 C40 1_555 1_555
C43 C49 1_555 1_555
C44 C41 1_555 1_555
H29 C44 1_555 1_555
C47 C41 1_555 1_555
H31 C47 1_555 1_555
C49 C47 1_555 1_555
H33 C49 1_555 1_555
C50 C43 1_555 1_555
O18 Cu6 1_555 1_555
O13 C40 1_555 1_555
C44 C50 1_555 1_555
O18 C62 1_555 1_555
O20 C62 1_555 1_555
C53 C59 1_555 1_555
C54 C61 1_555 1_555
C59 H40 1_555 1_555
C61 C59 1_555 1_555
C62 C53 1_555 1_555
C63 C54 1_555 1_555
H43 C63 1_555 1_555
C66 C53 1_555 1_555
H46 C66 1_555 1_555
C63 C66 1_555 1_555
S2 O9 1_555 1_555
O9 Cu5 1_555 1_555
O10 S2 1_555 1_555
O11 S2 1_555 1_555
C35 S2 1_555 1_555
C34 C35 1_555 1_555
C22_2 H13_2 1_555 1_555
H17_2 C27_2 1_555 1_555
C32_2 C22_2 1_555 1_555
H22_2 C32_2 1_555 1_555
O15 C62_2 1_555 1_555
O16 C62_2 1_555 1_555
C53_2 C59_2 1_555 1_555
C54_2 C61_2 1_555 1_555
C59_2 H40_2 1_555 1_555
C61_2 C59_2 1_555 1_555
C62_2 C53_2 1_555 1_555
C63_2 C54_2 1_555 1_555
H43_2 C63_2 1_555 1_555
C66_2 C53_2 1_555 1_555
H46_2 C66_2 1_555 1_555
Cu7 O15 1_555 1_555
C27_2 C32_2 1_555 1_555
C63_2 C66_2 1_555 1_555
O6_2 Cu7 1_555 1_555
O13_2 Cu7 1_555 1_555
C40_2 O12_2 1_555 1_555
C41_2 C40_2 1_555 1_555
C43_2 C49_2 1_555 1_555
C44_2 C41_2 1_555 1_555
H29_2 C44_2 1_555 1_555
C47_2 C41_2 1_555 1_555
H31_2 C47_2 1_555 1_555
C49_2 C47_2 1_555 1_555
H33_2 C49_2 1_555 1_555
C50_2 C43_2 1_555 1_555
O13_2 C40_2 1_555 1_555
C44_2 C50_2 1_555 1_555
H28_2 C42_2 1_555 1_555
C45_2 C42_2 1_555 1_555
H30_2 C46_2 1_555 1_555
C48_2 C45_2 1_555 1_555
H32_2 C48_2 1_555 1_555
C51_2 C45_2 1_555 1_555
H35_2 C51_2 1_555 1_555
C46_2 C51_2 1_555 1_555
C48_2 C52_2 1_555 1_555
S2_2 O9_2 1_555 1_555
O9_2 Cu5 1_555 1_555
O10_2 S2_2 1_555 1_555
O11_2 S2_2 1_555 1_555
C35_2 S2_2 1_555 1_555
H24_2 C36_2 1_555 1_555
C37_2 C35_2 1_555 1_555
H25_2 C37_2 1_555 1_555
C38_2 C36_2 1_555 1_555
H26_2 C38_2 1_555 1_555
C34_2 C35_2 1_555 1_555
C37_2 C38_2 1_555 1_555
N3 C39_2 1_555 1_555
C39_2 H27_2 1_555 1_555
Cu5 N3 1_555 1_555
Cu5 N1_2 1_555 1_555
N1_2 C3_2 1_555 1_555
O1 C13_2 1_555 1_555
O3 C13_2 1_555 1_555
N2_2 Cu5 1_555 1_555
C1_2 C8_2 1_555 1_555
C2_2 C11_2 1_555 1_555
C3_2 H1_2 1_555 1_555
C4_2 C7_2 1_555 1_555
C5_2 N1_2 1_555 1_555
H2_2 C5_2 1_555 1_555
C7_2 C5_2 1_555 1_555
H3_2 C7_2 1_555 1_555
C8_2 H4_2 1_555 1_555
C9_2 C3_2 1_555 1_555
H5_2 C9_2 1_555 1_555
C10_2 N2_2 1_555 1_555
H6_2 C10_2 1_555 1_555
C11_2 C8_2 1_555 1_555
H7_2 C11_2 1_555 1_555
C13_2 C1_2 1_555 1_555
C14_2 C2_2 1_555 1_555
H8_2 C14_2 1_555 1_555
C17_2 C4_2 1_555 1_555
H10_2 C17_2 1_555 1_555
C18_2 C2_2 1_555 1_555
H11_2 C18_2 1_555 1_555
C25_2 C1_2 1_555 1_555
H15_2 C25_2 1_555 1_555
N4_2 Cu5 1_555 1_555
C55_2 N4_2 1_555 1_555
H37_2 C55_2 1_555 1_555
C56_2 C58_2 1_555 1_555
C57_2 N4_2 1_555 1_555
H38_2 C57_2 1_555 1_555
C58_2 C57_2 1_555 1_555
H39_2 C58_2 1_555 1_555
C60_2 C55_2 1_555 1_555
H41_2 C60_2 1_555 1_555
C64_2 C56_2 1_555 1_555
H44_2 C64_2 1_555 1_555
H45_2 C65_2 1_555 1_555
Cu8 O1 1_555 1_555
C4_2 C9_2 1_555 1_555
C14_2 C25_2 1_555 1_555
C17_2 C18_2 1_555 1_555
C56_2 C60_2 1_555 1_555
C64_2 C65_2 1_555 1_555
O2_2 C12_2 1_555 1_555
O5_2 C12_2 1_555 1_555
C12_2 C15_2 1_555 1_555
C15_2 C21_2 1_555 1_555
H9_2 C16_2 1_555 1_555
C20_2 C29_2 1_555 1_555
C21_2 H12_2 1_555 1_555
C23_2 C16_2 1_555 1_555
H14_2 C24_2 1_555 1_555
C26_2 C15_2 1_555 1_555
H16_2 C26_2 1_555 1_555
C28_2 C23_2 1_555 1_555
H18_2 C28_2 1_555 1_555
C29_2 C26_2 1_555 1_555
H19_2 C29_2 1_555 1_555
C30_2 C20_2 1_555 1_555
H20_2 C30_2 1_555 1_555
C31_2 C23_2 1_555 1_555
H21_2 C31_2 1_555 1_555
C33_2 C20_2 1_555 1_555
H23_2 C33_2 1_555 1_555
O14_2 Cu8 1_555 1_555
O5_2 Cu8 1_555 1_555
C21_2 C30_2 1_555 1_555
C24_2 C31_2 1_555 1_555
C28_2 C33_2 1_555 1_555

#END
