
###############################################################################
#
# This file contains modified crystal structure data generated from the
# MOF subset of the Cambridge Structural Database (CSD) v543 
# hosted by the Cambridge Crystallographic Data Centre (CCDC).
#
# This work is licensed under the Creative Commons
# Attribution-NonCommercial-ShareAlike 4.0 International License.
# To view a copy of this license, visit
# http://creativecommons.org/licenses/by-nc-sa/4.0/
# or send a letter to
# Creative Commons, PO Box 1866, Mountain View, CA 94042, USA.
#
# CIF created using the CSD Python API on 29 September 2022
# The structure has been converted into the P1 space group
# The structure has a 3D framework
# The original CSD entry ZAJLUV is in the orthorhombic crystal system
# The framework has been calculated to contain at least 10.0% void space
# The void calculation uses a probe of radius 1.32A, grid spacing 0.4
#
###############################################################################

data_ZAJLUV
_chemical_formula_moiety         '(C136 H80 Cu4 I4 N16 O24)n'
_symmetry_cell_setting           triclinic
_symmetry_space_group_name_H-M   'P 1'
_symmetry_Int_Tables_number      1
_space_group_name_Hall           'P 1'
loop_
_symmetry_equiv_pos_site_id
_symmetry_equiv_pos_as_xyz
1 x,y,z
_cell_length_a                   7.6205(10)
_cell_length_b                   36.841(5)
_cell_length_c                   12.3053(17)
_cell_angle_alpha                90
_cell_angle_beta                 90
_cell_angle_gamma                90
_cell_volume                     3454.67
loop_
_atom_site_label
_atom_site_type_symbol
_atom_site_fract_x
_atom_site_fract_y
_atom_site_fract_z
I1 I 0.34121(9) 0.2500 0.15705(6)
Cu1 Cu 0.18937(18) 0.2500 0.34924(12)
O2 O 0.0628(8) 0.12603(16) 0.5558(6)
O3 O 0.6361(8) 0.14519(15) 0.4463(6)
N1 N 0.3517(9) 0.13435(17) 0.5011(6)
N2 N 0.2546(9) 0.20176(17) 0.4192(6)
C2 C 0.2043(10) 0.0268(2) 0.6914(6)
C3 C 0.1411(11) 0.0288(2) 0.5846(6)
H1 H 0.1293 0.0076 0.5441
C4 C 0.0962(12) 0.0616(2) 0.5389(7)
H2 H 0.0519 0.0628 0.4686
C5 C 0.1185(11) 0.0928(2) 0.5996(8)
C6 C 0.1853(12) 0.0918(2) 0.7042(8)
H3 H 0.2020 0.1131 0.7434
C7 C 0.2261(13) 0.0589(2) 0.7488(8)
H4 H 0.2696 0.0580 0.8194
C8 C 0.6698(10) 0.1103(2) 0.4055(7)
C9 C 0.7530(12) 0.1083(2) 0.3050(8)
H5 H 0.7867 0.1293 0.2688
C10 C 0.7845(12) 0.0752(2) 0.2605(7)
H6 H 0.8417 0.0739 0.1939
C11 C 0.7338(11) 0.0432(2) 0.3114(6)
C12 C 0.6540(11) 0.0458(2) 0.4145(6)
H7 H 0.6248 0.0247 0.4519
C13 C 0.6187(11) 0.0791(2) 0.4609(7)
H8 H 0.5620 0.0807 0.5276
C14 C 0.4631(10) 0.1562(2) 0.4549(7)
C15 C 0.4223(10) 0.1899(2) 0.4126(8)
H9 H 0.5084 0.2042 0.3802
C16 C 0.1370(11) 0.1801(2) 0.4658(7)
H10 H 0.0201 0.1872 0.4702
C17 C 0.1892(10) 0.1468(2) 0.5077(7)
O4 O 0.7589(14) 0.0088(2) 0.1533(5)
C18 C 0.7611(12) 0.0082(2) 0.2534(7)
Cu2 Cu 0.68937(18) 0.2500 0.15076(12)
N5 N 0.2546(9) 0.29824(17) 0.4192(6)
O1 O 0.2411(14) 0.9912(2) 0.8467(5)
C1 C 0.2389(12) 0.9918(2) 0.7466(7)
O5 O 0.9372(8) 0.87397(16) 0.4442(6)
O6 O 0.3639(8) 0.85481(15) 0.5537(6)
N3 N 0.6483(9) 0.86565(17) 0.4989(6)
N4 N 0.7454(9) 0.79824(17) 0.5808(6)
C19 C 0.7957(10) 0.9732(2) 0.3086(6)
C20 C 0.8589(11) 0.9712(2) 0.4154(6)
H11 H 0.8707 0.9924 0.4559
C21 C 0.9038(12) 0.9384(2) 0.4611(7)
H12 H 0.9481 0.9372 0.5314
C22 C 0.8815(11) 0.9072(2) 0.4004(8)
C23 C 0.8147(12) 0.9082(2) 0.2958(8)
H13 H 0.7980 0.8869 0.2566
C24 C 0.7739(13) 0.9411(2) 0.2512(8)
H14 H 0.7304 0.9420 0.1806
C25 C 0.3302(10) 0.8897(2) 0.5945(7)
C26 C 0.2470(12) 0.8917(2) 0.6950(8)
H15 H 0.2133 0.8707 0.7312
C27 C 0.2155(12) 0.9248(2) 0.7395(7)
H16 H 0.1583 0.9261 0.8061
C28 C 0.2662(11) 0.9568(2) 0.6886(6)
C29 C 0.3460(11) 0.9542(2) 0.5855(6)
H17 H 0.3752 0.9753 0.5481
C30 C 0.3813(11) 0.9209(2) 0.5391(7)
H18 H 0.4380 0.9193 0.4724
C31 C 0.5369(10) 0.8438(2) 0.5451(7)
C32 C 0.5777(10) 0.8101(2) 0.5874(8)
H19 H 0.4916 0.7958 0.6198
C33 C 0.8630(11) 0.8199(2) 0.5342(7)
H20 H 0.9799 0.8128 0.5298
C34 C 0.8108(10) 0.8532(2) 0.4923(7)
Cu3 Cu 0.81063(18) 0.7500 0.65076(12)
I2 I 0.84121(9) 0.2500 0.34295(6)
O1_2 O 0.2589(14) 0.0088(2) 0.3467(5)
C1_2 C 0.2611(12) 0.0082(2) 0.2466(7)
O6_2 O 0.1361(8) 0.14519(15) 0.0537(6)
C25_2 C 0.1698(10) 0.1103(2) 0.0945(7)
C26_2 C 0.2530(12) 0.1083(2) 0.1950(8)
H15_2 H 0.2867 0.1293 0.2312
C27_2 C 0.2845(12) 0.0752(2) 0.2395(7)
H16_2 H 0.3417 0.0739 0.3061
C28_2 C 0.2338(11) 0.0432(2) 0.1886(6)
C29_2 C 0.1540(11) 0.0458(2) 0.0855(6)
H17_2 H 0.1248 0.0247 0.0481
C30_2 C 0.1187(11) 0.0791(2) 0.0391(7)
H19_2 H 0.0084 0.2042 0.1198
I1_2 I 0.15879(9) 0.7500 0.65705(6)
Cu1_2 Cu 0.31063(18) 0.7500 0.84924(12)
N2_2 N 0.2454(9) 0.79824(17) 0.9192(6)
H2_2 H 0.4481 0.9372 0.9686
C14_2 C 0.0369(10) 0.8438(2) 0.9549(7)
C15_2 C 0.0777(10) 0.8101(2) 0.9126(8)
C16_2 C 0.3630(11) 0.8199(2) 0.9658(7)
H10_2 H 0.4799 0.8128 0.9702
I2_2 I 0.65879(9) 0.7500 0.84295(6)
N5_2 N 0.2454(9) 0.70176(17) 0.9192(6)
N4_2 N 0.7546(9) 0.20176(17) 0.0808(6)
H12_2 H 0.5519 0.0628 0.0314
C31_2 C 0.9631(10) 0.1562(2) 0.0451(7)
C32_2 C 0.9223(10) 0.1899(2) 0.0874(8)
C33_2 C 0.6370(11) 0.1801(2) 0.0342(7)
H20_2 H 0.5201 0.1872 0.0298
O3_2 O 0.8639(8) 0.85481(15) 0.9463(6)
C8_2 C 0.8302(10) 0.8897(2) 0.9055(7)
C9_2 C 0.7470(12) 0.8917(2) 0.8050(8)
H5_2 H 0.7133 0.8707 0.7688
C10_2 C 0.7155(12) 0.9248(2) 0.7605(7)
H6_2 H 0.6583 0.9261 0.6939
C11_2 C 0.7662(11) 0.9568(2) 0.8114(6)
C12_2 C 0.8460(11) 0.9542(2) 0.9145(6)
H7_2 H 0.8752 0.9753 0.9519
C13_2 C 0.8813(11) 0.9209(2) 0.9609(7)
H9_2 H 0.9916 0.7958 0.8802
O4_2 O 0.7411(14) 0.9912(2) 0.6533(5)
C18_2 C 0.7389(12) 0.9918(2) 0.7534(7)
O3_3 O 0.1361(8) 0.35481(15) 0.0537(6)
C8_3 C 0.1698(10) 0.3897(2) 0.0945(7)
C9_3 C 0.2530(12) 0.3917(2) 0.1950(8)
H5_3 H 0.2867 0.3707 0.2312
C10_3 C 0.2845(12) 0.4248(2) 0.2395(7)
H6_3 H 0.3417 0.4261 0.3061
C11_3 C 0.2338(11) 0.4568(2) 0.1886(6)
C12_3 C 0.1540(11) 0.4542(2) 0.0855(6)
H7_3 H 0.1248 0.4753 0.0481
C13_3 C 0.1187(11) 0.4209(2) 0.0391(7)
H9_3 H 0.0084 0.2958 0.1198
O4_3 O 0.2589(14) 0.4912(2) 0.3467(5)
O5_2 O 0.4372(8) 0.62603(16) 0.0558(6)
N3_2 N 0.1483(9) 0.63435(17) 0.0011(6)
C18_3 C 0.2611(12) 0.4918(2) 0.2466(7)
C19_2 C 0.2957(10) 0.5268(2) 0.1914(6)
C20_2 C 0.3589(11) 0.5288(2) 0.0846(6)
H11_2 H 0.3707 0.5076 0.0441
C21_2 C 0.4038(12) 0.5616(2) 0.0389(7)
C22_2 C 0.3815(11) 0.5928(2) 0.0996(8)
C23_2 C 0.3147(12) 0.5918(2) 0.2042(8)
H13_2 H 0.2980 0.6131 0.2434
C24_2 C 0.2739(13) 0.5589(2) 0.2488(8)
H14_2 H 0.2304 0.5580 0.3194
C34_2 C 0.3108(10) 0.6468(2) 0.0077(7)
H8_2 H 0.0620 0.4193 0.9724
H12_3 H 0.4481 0.5628 0.9686
C31_3 C 0.0369(10) 0.6562(2) 0.9549(7)
C32_3 C 0.0777(10) 0.6899(2) 0.9126(8)
C33_3 C 0.3630(11) 0.6801(2) 0.9658(7)
H20_3 H 0.4799 0.6872 0.9702
N2_3 N 0.7546(9) 0.29824(17) 0.0808(6)
H2_3 H 0.5519 0.4372 0.0314
C14_3 C 0.9631(10) 0.3438(2) 0.0451(7)
C15_3 C 0.9223(10) 0.3101(2) 0.0874(8)
C16_3 C 0.6370(11) 0.3199(2) 0.0342(7)
H10_3 H 0.5201 0.3128 0.0298
H18_2 H 0.9380 0.5807 0.0276
O1_3 O 0.7411(14) 0.5088(2) 0.6533(5)
O2_2 O 0.5628(8) 0.37397(16) 0.9442(6)
N1_2 N 0.8517(9) 0.36565(17) 0.9989(6)
C1_3 C 0.7389(12) 0.5082(2) 0.7534(7)
C2_2 C 0.7043(10) 0.4732(2) 0.8086(6)
C3_2 C 0.6411(11) 0.4712(2) 0.9154(6)
H1_2 H 0.6293 0.4924 0.9559
C4_2 C 0.5962(12) 0.4384(2) 0.9611(7)
C5_2 C 0.6185(11) 0.4072(2) 0.9004(8)
C6_2 C 0.6853(12) 0.4082(2) 0.7958(8)
H3_2 H 0.7020 0.3869 0.7566
C7_2 C 0.7261(13) 0.4411(2) 0.7512(8)
H4_2 H 0.7696 0.4420 0.6806
C17_2 C 0.6892(10) 0.3532(2) 0.9923(7)
O6_3 O 0.8639(8) 0.64519(15) 0.9463(6)
C25_3 C 0.8302(10) 0.6103(2) 0.9055(7)
C26_3 C 0.7470(12) 0.6083(2) 0.8050(8)
H15_3 H 0.7133 0.6293 0.7688
C27_3 C 0.7155(12) 0.5752(2) 0.7605(7)
H16_3 H 0.6583 0.5739 0.6939
C28_3 C 0.7662(11) 0.5432(2) 0.8114(6)
C29_3 C 0.8460(11) 0.5458(2) 0.9145(6)
H17_3 H 0.8752 0.5247 0.9519
C30_3 C 0.8813(11) 0.5791(2) 0.9609(7)
H19_3 H 0.9916 0.7042 0.8802
O1_4 O 0.7589(14) 0.4912(2) 0.1533(5)
O2_3 O 0.9372(8) 0.62603(16) 0.4442(6)
O3_4 O 0.3639(8) 0.64519(15) 0.5537(6)
N1_3 N 0.6483(9) 0.63435(17) 0.4989(6)
N2_4 N 0.7454(9) 0.70176(17) 0.5808(6)
C1_4 C 0.7611(12) 0.4918(2) 0.2534(7)
C2_3 C 0.7957(10) 0.5268(2) 0.3086(6)
C3_3 C 0.8589(11) 0.5288(2) 0.4154(6)
H1_3 H 0.8707 0.5076 0.4559
C4_3 C 0.9038(12) 0.5616(2) 0.4611(7)
H2_4 H 0.9481 0.5628 0.5314
C5_3 C 0.8815(11) 0.5928(2) 0.4004(8)
C6_3 C 0.8147(12) 0.5918(2) 0.2958(8)
H3_3 H 0.7980 0.6131 0.2566
C7_3 C 0.7739(13) 0.5589(2) 0.2512(8)
H4_3 H 0.7304 0.5580 0.1806
C8_4 C 0.3302(10) 0.6103(2) 0.5945(7)
C9_4 C 0.2470(12) 0.6083(2) 0.6950(8)
H5_4 H 0.2133 0.6293 0.7312
C10_4 C 0.2155(12) 0.5752(2) 0.7395(7)
H6_4 H 0.1583 0.5739 0.8061
C11_4 C 0.2662(11) 0.5432(2) 0.6886(6)
C12_4 C 0.3460(11) 0.5458(2) 0.5855(6)
H7_4 H 0.3752 0.5247 0.5481
C13_4 C 0.3813(11) 0.5791(2) 0.5391(7)
H8_3 H 0.4380 0.5807 0.4724
C14_4 C 0.5369(10) 0.6562(2) 0.5451(7)
C15_4 C 0.5777(10) 0.6899(2) 0.5874(8)
H9_4 H 0.4916 0.7042 0.6198
C16_4 C 0.8630(11) 0.6801(2) 0.5342(7)
H10_4 H 0.9799 0.6872 0.5298
C17_3 C 0.8108(10) 0.6468(2) 0.4923(7)
O4_4 O 0.2411(14) 0.5088(2) 0.8467(5)
O5_3 O 0.0628(8) 0.37397(16) 0.5558(6)
O6_4 O 0.6361(8) 0.35481(15) 0.4463(6)
N3_3 N 0.3517(9) 0.36565(17) 0.5011(6)
C18_4 C 0.2389(12) 0.5082(2) 0.7466(7)
C19_3 C 0.2043(10) 0.4732(2) 0.6914(6)
C20_3 C 0.1411(11) 0.4712(2) 0.5846(6)
H11_3 H 0.1293 0.4924 0.5441
C21_3 C 0.0962(12) 0.4384(2) 0.5389(7)
H12_4 H 0.0519 0.4372 0.4686
C22_3 C 0.1185(11) 0.4072(2) 0.5996(8)
C23_3 C 0.1853(12) 0.4082(2) 0.7042(8)
H13_3 H 0.2020 0.3869 0.7434
C24_3 C 0.2261(13) 0.4411(2) 0.7488(8)
H14_3 H 0.2696 0.4420 0.8194
C25_4 C 0.6698(10) 0.3897(2) 0.4055(7)
C26_4 C 0.7530(12) 0.3917(2) 0.3050(8)
H15_4 H 0.7867 0.3707 0.2688
C27_4 C 0.7845(12) 0.4248(2) 0.2605(7)
H16_4 H 0.8417 0.4261 0.1939
C28_4 C 0.7338(11) 0.4568(2) 0.3114(6)
C29_4 C 0.6540(11) 0.4542(2) 0.4145(6)
H17_4 H 0.6248 0.4753 0.4519
C30_4 C 0.6187(11) 0.4209(2) 0.4609(7)
H18_3 H 0.5620 0.4193 0.5276
C31_4 C 0.4631(10) 0.3438(2) 0.4549(7)
C32_4 C 0.4223(10) 0.3101(2) 0.4126(8)
H19_4 H 0.5084 0.2958 0.3802
C33_4 C 0.1370(11) 0.3199(2) 0.4658(7)
H20_4 H 0.0201 0.3128 0.4702
C34_3 C 0.1892(10) 0.3532(2) 0.5077(7)
H18_4 H 0.0620 0.0807 0.9724
O2_4 O 0.4372(8) 0.87397(16) 0.0558(6)
N1_4 N 0.1483(9) 0.86565(17) 0.0011(6)
C2_4 C 0.2957(10) 0.9732(2) 0.1914(6)
C3_4 C 0.3589(11) 0.9712(2) 0.0846(6)
H1_4 H 0.3707 0.9924 0.0441
C4_4 C 0.4038(12) 0.9384(2) 0.0389(7)
C5_4 C 0.3815(11) 0.9072(2) 0.0996(8)
C6_4 C 0.3147(12) 0.9082(2) 0.2042(8)
H3_4 H 0.2980 0.8869 0.2434
C7_4 C 0.2739(13) 0.9411(2) 0.2488(8)
H4_4 H 0.2304 0.9420 0.3194
C17_4 C 0.3108(10) 0.8532(2) 0.0077(7)
O5_4 O 0.5628(8) 0.12603(16) 0.9442(6)
N3_4 N 0.8517(9) 0.13435(17) 0.9989(6)
C19_4 C 0.7043(10) 0.0268(2) 0.8086(6)
C20_4 C 0.6411(11) 0.0288(2) 0.9154(6)
H11_4 H 0.6293 0.0076 0.9559
C21_4 C 0.5962(12) 0.0616(2) 0.9611(7)
C22_4 C 0.6185(11) 0.0928(2) 0.9004(8)
C23_4 C 0.6853(12) 0.0918(2) 0.7958(8)
H13_4 H 0.7020 0.1131 0.7566
C24_4 C 0.7261(13) 0.0589(2) 0.7512(8)
H14_4 H 0.7696 0.0580 0.6806
C34_4 C 0.6892(10) 0.1468(2) 0.9923(7)
H8_4 H 0.9380 0.9193 0.0276
loop_
_geom_bond_atom_site_label_1
_geom_bond_atom_site_label_2
_geom_bond_site_symmetry_1
_geom_bond_site_symmetry_2
I1 Cu1 1_555 1_555
Cu1 N2 1_555 1_555
O2 C5 1_555 1_555
O3 C8 1_555 1_555
N1 C14 1_555 1_555
N2 C15 1_555 1_555
C2 C3 1_555 1_555
C3 H1 1_555 1_555
C4 C3 1_555 1_555
H2 C4 1_555 1_555
C5 C4 1_555 1_555
C6 C5 1_555 1_555
H3 C6 1_555 1_555
C7 C2 1_555 1_555
H4 C7 1_555 1_555
C8 C9 1_555 1_555
C9 H5 1_555 1_555
C10 C9 1_555 1_555
H6 C10 1_555 1_555
C11 C10 1_555 1_555
C12 C11 1_555 1_555
H7 C12 1_555 1_555
C13 C8 1_555 1_555
H8 C13 1_555 1_555
C14 O3 1_555 1_555
C15 C14 1_555 1_555
H9 C15 1_555 1_555
C16 N2 1_555 1_555
H10 C16 1_555 1_555
C17 O2 1_555 1_555
O4 C18 1_555 1_555
C18 C11 1_555 1_555
Cu2 I1 1_555 1_555
N5 Cu1 1_555 1_555
N1 C17 1_555 1_555
C6 C7 1_555 1_555
C12 C13 1_555 1_555
C16 C17 1_555 1_555
O1 C1 1_555 1_555
O5 C22 1_555 1_555
O6 C25 1_555 1_555
N3 C31 1_555 1_555
N4 C32 1_555 1_555
C20 C19 1_555 1_555
H11 C20 1_555 1_555
C21 C20 1_555 1_555
H12 C21 1_555 1_555
C22 C21 1_555 1_555
C23 C22 1_555 1_555
H13 C23 1_555 1_555
C24 C19 1_555 1_555
H14 C24 1_555 1_555
C25 C26 1_555 1_555
C26 H15 1_555 1_555
C27 C26 1_555 1_555
H16 C27 1_555 1_555
C28 C1 1_555 1_555
C29 C28 1_555 1_555
H17 C29 1_555 1_555
C30 C25 1_555 1_555
H18 C30 1_555 1_555
C31 O6 1_555 1_555
C32 C31 1_555 1_555
H19 C32 1_555 1_555
C33 N4 1_555 1_555
H20 C33 1_555 1_555
C34 O5 1_555 1_555
Cu3 N4 1_555 1_555
N3 C34 1_555 1_555
C23 C24 1_555 1_555
C27 C28 1_555 1_555
C29 C30 1_555 1_555
C33 C34 1_555 1_555
O1_2 C1_2 1_555 1_555
O6_2 C25_2 1_555 1_555
C25_2 C26_2 1_555 1_555
C26_2 H15_2 1_555 1_555
C27_2 C26_2 1_555 1_555
H16_2 C27_2 1_555 1_555
C28_2 C1_2 1_555 1_555
C29_2 C28_2 1_555 1_555
H17_2 C29_2 1_555 1_555
C30_2 C25_2 1_555 1_555
C27_2 C28_2 1_555 1_555
C29_2 C30_2 1_555 1_555
I1_2 Cu1_2 1_555 1_555
Cu1_2 N2_2 1_555 1_555
N2_2 C15_2 1_555 1_555
C15_2 C14_2 1_555 1_555
C16_2 N2_2 1_555 1_555
H10_2 C16_2 1_555 1_555
I2_2 Cu1_2 1_555 1_555
N5_2 Cu1_2 1_555 1_555
N4_2 C32_2 1_555 1_555
C32_2 C31_2 1_555 1_555
C33_2 N4_2 1_555 1_555
H20_2 C33_2 1_555 1_555
Cu2 N4_2 1_555 1_555
O3_2 C8_2 1_555 1_555
C8_2 C9_2 1_555 1_555
C9_2 H5_2 1_555 1_555
C10_2 C9_2 1_555 1_555
H6_2 C10_2 1_555 1_555
C11_2 C10_2 1_555 1_555
C12_2 C11_2 1_555 1_555
H7_2 C12_2 1_555 1_555
C13_2 C8_2 1_555 1_555
O4_2 C18_2 1_555 1_555
C18_2 C11_2 1_555 1_555
C12_2 C13_2 1_555 1_555
O3_3 C8_3 1_555 1_555
C8_3 C9_3 1_555 1_555
C9_3 H5_3 1_555 1_555
C10_3 C9_3 1_555 1_555
H6_3 C10_3 1_555 1_555
C11_3 C10_3 1_555 1_555
C12_3 C11_3 1_555 1_555
H7_3 C12_3 1_555 1_555
C13_3 C8_3 1_555 1_555
O4_3 C18_3 1_555 1_555
O5_2 C22_2 1_555 1_555
C18_3 C11_3 1_555 1_555
C19_2 C18_3 1_555 1_555
C20_2 C19_2 1_555 1_555
H11_2 C20_2 1_555 1_555
C21_2 C20_2 1_555 1_555
C22_2 C21_2 1_555 1_555
C23_2 C22_2 1_555 1_555
H13_2 C23_2 1_555 1_555
C24_2 C19_2 1_555 1_555
H14_2 C24_2 1_555 1_555
C34_2 O5_2 1_555 1_555
C12_3 C13_3 1_555 1_555
N3_2 C34_2 1_555 1_555
C23_2 C24_2 1_555 1_555
N5_2 C32_3 1_555 1_555
C32_3 C31_3 1_555 1_555
C33_3 N5_2 1_555 1_555
H20_3 C33_3 1_555 1_555
I2 Cu2 1_555 1_555
Cu2 N2_3 1_555 1_555
N2_3 C15_3 1_555 1_555
C15_3 C14_3 1_555 1_555
C16_3 N2_3 1_555 1_555
H10_3 C16_3 1_555 1_555
O1_3 C1_3 1_555 1_555
O2_2 C5_2 1_555 1_555
C1_3 C2_2 1_555 1_555
C2_2 C3_2 1_555 1_555
C3_2 H1_2 1_555 1_555
C4_2 C3_2 1_555 1_555
C5_2 C4_2 1_555 1_555
C6_2 C5_2 1_555 1_555
H3_2 C6_2 1_555 1_555
C7_2 C2_2 1_555 1_555
H4_2 C7_2 1_555 1_555
C17_2 O2_2 1_555 1_555
O6_3 C25_3 1_555 1_555
C25_3 C26_3 1_555 1_555
C26_3 H15_3 1_555 1_555
C27_3 C26_3 1_555 1_555
H16_3 C27_3 1_555 1_555
C28_3 C1_3 1_555 1_555
C29_3 C28_3 1_555 1_555
H17_3 C29_3 1_555 1_555
C30_3 C25_3 1_555 1_555
N1_2 C17_2 1_555 1_555
C6_2 C7_2 1_555 1_555
C27_3 C28_3 1_555 1_555
C29_3 C30_3 1_555 1_555
I2_2 Cu3 1_555 1_555
Cu3 N2_4 1_555 1_555
O1_4 C1_4 1_555 1_555
O2_3 C5_3 1_555 1_555
O3_4 C8_4 1_555 1_555
N1_3 C14_4 1_555 1_555
N2_4 C15_4 1_555 1_555
C1_4 C2_3 1_555 1_555
C2_3 C3_3 1_555 1_555
C3_3 H1_3 1_555 1_555
C4_3 C3_3 1_555 1_555
H2_4 C4_3 1_555 1_555
C5_3 C4_3 1_555 1_555
C6_3 C5_3 1_555 1_555
H3_3 C6_3 1_555 1_555
C7_3 C2_3 1_555 1_555
H4_3 C7_3 1_555 1_555
C8_4 C9_4 1_555 1_555
C9_4 H5_4 1_555 1_555
C10_4 C9_4 1_555 1_555
H6_4 C10_4 1_555 1_555
C11_4 C10_4 1_555 1_555
C12_4 C11_4 1_555 1_555
H7_4 C12_4 1_555 1_555
C13_4 C8_4 1_555 1_555
H8_3 C13_4 1_555 1_555
C14_4 O3_4 1_555 1_555
C15_4 C14_4 1_555 1_555
H9_4 C15_4 1_555 1_555
C16_4 N2_4 1_555 1_555
H10_4 C16_4 1_555 1_555
C17_3 O2_3 1_555 1_555
O4_4 C18_4 1_555 1_555
O5_3 C22_3 1_555 1_555
O6_4 C25_4 1_555 1_555
N3_3 C31_4 1_555 1_555
N5 C32_4 1_555 1_555
C18_4 C11_4 1_555 1_555
C19_3 C18_4 1_555 1_555
C20_3 C19_3 1_555 1_555
H11_3 C20_3 1_555 1_555
C21_3 C20_3 1_555 1_555
H12_4 C21_3 1_555 1_555
C22_3 C21_3 1_555 1_555
C23_3 C22_3 1_555 1_555
H13_3 C23_3 1_555 1_555
C24_3 C19_3 1_555 1_555
H14_3 C24_3 1_555 1_555
C25_4 C26_4 1_555 1_555
C26_4 H15_4 1_555 1_555
C27_4 C26_4 1_555 1_555
H16_4 C27_4 1_555 1_555
C28_4 C1_4 1_555 1_555
C29_4 C28_4 1_555 1_555
H17_4 C29_4 1_555 1_555
C30_4 C25_4 1_555 1_555
H18_3 C30_4 1_555 1_555
C31_4 O6_4 1_555 1_555
C32_4 C31_4 1_555 1_555
H19_4 C32_4 1_555 1_555
C33_4 N5 1_555 1_555
H20_4 C33_4 1_555 1_555
C34_3 O5_3 1_555 1_555
N1_3 C17_3 1_555 1_555
C6_3 C7_3 1_555 1_555
C12_4 C13_4 1_555 1_555
C16_4 C17_3 1_555 1_555
N3_3 C34_3 1_555 1_555
C23_3 C24_3 1_555 1_555
C27_4 C28_4 1_555 1_555
C29_4 C30_4 1_555 1_555
C33_4 C34_3 1_555 1_555
O2_4 C5_4 1_555 1_555
C2_4 C3_4 1_555 1_555
C3_4 H1_4 1_555 1_555
C4_4 C3_4 1_555 1_555
C5_4 C4_4 1_555 1_555
C6_4 C5_4 1_555 1_555
H3_4 C6_4 1_555 1_555
C7_4 C2_4 1_555 1_555
H4_4 C7_4 1_555 1_555
C17_4 O2_4 1_555 1_555
N1_4 C17_4 1_555 1_555
C6_4 C7_4 1_555 1_555
O5_4 C22_4 1_555 1_555
C20_4 C19_4 1_555 1_555
H11_4 C20_4 1_555 1_555
C21_4 C20_4 1_555 1_555
C22_4 C21_4 1_555 1_555
C23_4 C22_4 1_555 1_555
H13_4 C23_4 1_555 1_555
C24_4 C19_4 1_555 1_555
H14_4 C24_4 1_555 1_555
C34_4 O5_4 1_555 1_555
N3_4 C34_4 1_555 1_555
C23_4 C24_4 1_555 1_555

#END
