
###############################################################################
#
# This file contains modified crystal structure data generated from the
# MOF subset of the Cambridge Structural Database (CSD) v543 
# hosted by the Cambridge Crystallographic Data Centre (CCDC).
#
# This work is licensed under the Creative Commons
# Attribution-NonCommercial-ShareAlike 4.0 International License.
# To view a copy of this license, visit
# http://creativecommons.org/licenses/by-nc-sa/4.0/
# or send a letter to
# Creative Commons, PO Box 1866, Mountain View, CA 94042, USA.
#
# CIF created using the CSD Python API on 29 September 2022
# The structure has been converted into the P1 space group
# The structure has a 3D framework
# The original CSD entry ZAKVUG is in the monoclinic crystal system
# The framework has been calculated to contain at least 10.0% void space
# The void calculation uses a probe of radius 1.32A, grid spacing 0.4
#
###############################################################################

data_ZAKVUG
_chemical_formula_moiety         '(C80 H80 N12 Nd4 O26)n'
_symmetry_cell_setting           triclinic
_symmetry_space_group_name_H-M   'P 1'
_symmetry_Int_Tables_number      1
_space_group_name_Hall           'P 1'
loop_
_symmetry_equiv_pos_site_id
_symmetry_equiv_pos_as_xyz
1 x,y,z
_cell_length_a                   10.7643(19)
_cell_length_b                   16.793(3)
_cell_length_c                   15.389(3)
_cell_angle_alpha                90
_cell_angle_beta                 100.129(3)
_cell_angle_gamma                90
_cell_volume                     2738.43
loop_
_atom_site_label
_atom_site_type_symbol
_atom_site_fract_x
_atom_site_fract_y
_atom_site_fract_z
N3 N 0.0188(11) 0.3369(5) 0.5956(7)
C19 C 0.0290(19) 0.3707(9) 0.6849(10)
H15 H 0.063841 0.423426 0.685827
H17 H 0.083048 0.337711 0.726322
C20 C 0.050(2) 0.3847(9) 0.5271(12)
H18 H 0.081890 0.435179 0.550813
H19 H 0.114190 0.358470 0.501156
O11 O 0.1083(5) 0.0647(3) 0.4795(4)
Nd1 Nd 0.88633(4) 0.09548(2) 0.45963(3)
O1 O 0.4513(6) 0.4111(3) 0.1202(4)
O2 O 0.6045(5) 0.5018(3) 0.1594(4)
O3 O 0.6879(6) 0.1607(4) 0.3842(4)
O4 O 0.7098(5) 0.1590(4) 0.5285(4)
O6 O 0.2857(5) 0.0025(3) 0.5293(5)
O7 O 0.9324(6) 0.1690(4) 0.3290(4)
O8 O 0.9632(6) 0.2329(4) 0.5050(5)
N1 N 0.6919(8) 0.4104(5) 0.4122(5)
N2 N 0.8817(10) 0.2607(6) 0.2217(7)
C1 C 0.6592(9) 0.4395(6) 0.3293(6)
H1 H 0.706677 0.481385 0.312892
C2 C 0.5598(8) 0.4112(5) 0.2668(5)
C3 C 0.4879(7) 0.3498(5) 0.2919(5)
H2 H 0.419820 0.329918 0.252237
C4 C 0.5176(8) 0.3175(5) 0.3772(6)
C5 C 0.6217(9) 0.3498(5) 0.4325(6)
H3 H 0.644244 0.327380 0.488272
C6 C 0.4459(7) 0.2517(5) 0.4079(5)
C7 C 0.5038(7) 0.1830(5) 0.4463(5)
C8 C 0.4332(8) 0.1230(5) 0.4764(6)
H4 H 0.473560 0.078678 0.504653
C9 C 0.3022(8) 0.1291(5) 0.4645(5)
C10 C 0.2441(8) 0.1967(5) 0.4265(6)
H5 H 0.156924 0.202031 0.419569
C11 C 0.3157(8) 0.2562(5) 0.3989(6)
H6 H 0.275039 0.301459 0.373115
C12 C 0.5361(8) 0.4442(5) 0.1749(5)
C13 C 0.6419(7) 0.1680(5) 0.4532(6)
C14 C 0.2278(7) 0.0615(5) 0.4926(6)
C15 C 0.9005(10) 0.2365(6) 0.3021(7)
H7 H 0.888725 0.273815 0.344528
C16 C 0.891(2) 0.2059(10) 0.1490(10)
H8 H 0.874444 0.234253 0.094033
H9 H 0.974956 0.183897 0.157072
H10 H 0.831116 0.163654 0.148305
C17 C 0.8547(15) 0.3437(9) 0.1962(10)
H11 H 0.843955 0.348492 0.133140
H12 H 0.778808 0.360405 0.215656
H13 H 0.923657 0.376800 0.223013
C18 C 0.9739(13) 0.2655(6) 0.5767(7)
H14 H 0.947876 0.236925 0.622059
H16 H 0.946757 0.373138 0.700859
H20 H 0.976767 0.393022 0.482913
Nd3 Nd 0.61367(4) 0.59548(2) 0.04037(3)
O9 O 0.9513(6) 0.0889(3) 0.6202(4)
O10 O 0.8955(5) 0.0018(3) 0.3406(4)
Nd5 Nd 0.38633(4) 0.40452(2) 0.95963(3)
Nd4 Nd 0.11367(4) 0.90452(2) 0.54037(3)
O12 O 0.8917(5) 0.9353(3) 0.5205(4)
O13 O 0.7143(5) 0.9975(3) 0.4707(5)
O1_2 O 0.0487(6) 0.9111(3) 0.3798(4)
O5 O 0.3917(5) 0.5647(3) 0.0205(4)
C3_2 C 0.0121(7) 0.8498(5) 0.2081(5)
H2_2 H 0.080180 0.829918 0.247763
C6_2 C 0.0541(7) 0.7517(5) 0.0921(5)
C8_2 C 0.0668(8) 0.6230(5) 0.0236(6)
C9_2 C 0.1978(8) 0.6291(5) 0.0355(5)
C10_2 C 0.2559(8) 0.6967(5) 0.0735(6)
H5_2 H 0.343076 0.702031 0.080431
C11_2 C 0.1843(8) 0.7562(5) 0.1011(6)
H6_2 H 0.224961 0.801459 0.126885
C14_2 C 0.2722(7) 0.5615(5) 0.0074(6)
O6_2 O 0.2143(5) 0.5025(3) 0.9707(5)
H4_2 H 0.026440 0.578678 0.995347
O3_2 O 0.8121(6) 0.6607(4) 0.1158(4)
O7_2 O 0.5676(6) 0.6690(4) 0.1710(4)
N1_2 N 0.8081(8) 0.9104(5) 0.0878(5)
N2_2 N 0.6183(10) 0.7607(6) 0.2783(7)
C1_2 C 0.8408(9) 0.9395(6) 0.1707(6)
H1_2 H 0.793323 0.981385 0.187108
C2_2 C 0.9402(8) 0.9112(5) 0.2332(5)
C4_2 C 0.9824(8) 0.8175(5) 0.1228(6)
C5_2 C 0.8783(9) 0.8498(5) 0.0675(6)
H3_2 H 0.855756 0.827380 0.011728
C7_2 C 0.9962(7) 0.6830(5) 0.0537(5)
C12_2 C 0.9639(8) 0.9442(5) 0.3251(5)
C13_2 C 0.8581(7) 0.6680(5) 0.0468(6)
C15_2 C 0.5995(10) 0.7365(6) 0.1979(7)
H7_2 H 0.611275 0.773815 0.155472
C16_2 C 0.609(2) 0.7059(10) 0.3510(10)
H8_2 H 0.625556 0.734253 0.405967
H9_2 H 0.525044 0.683897 0.342928
H10_2 H 0.668884 0.663654 0.351695
C17_2 C 0.6453(15) 0.8437(9) 0.3038(10)
H11_2 H 0.656045 0.848492 0.366860
H12_2 H 0.721192 0.860405 0.284344
H13_2 H 0.576343 0.876800 0.276987
H20_2 H 0.523233 0.893022 0.017087
O13_2 O 0.7857(5) 0.4975(3) 0.0293(5)
O4_2 O 0.7902(5) 0.6590(4) 0.9715(4)
O8_2 O 0.5368(6) 0.7329(4) 0.9950(5)
N3_2 N 0.4812(11) 0.8369(5) 0.9044(7)
C18_2 C 0.5261(13) 0.7655(6) 0.9233(7)
H14_2 H 0.552124 0.736925 0.877941
C19_2 C 0.4710(19) 0.8707(9) 0.8151(10)
H15_2 H 0.436159 0.923426 0.814173
H16_2 H 0.553243 0.873138 0.799141
H17_2 H 0.416952 0.837711 0.773678
C20_2 C 0.450(2) 0.8847(9) 0.9729(12)
H18_2 H 0.418110 0.935179 0.949187
H19_2 H 0.385810 0.858470 0.998844
O9_2 O 0.5487(6) 0.5889(3) 0.8798(4)
O12_2 O 0.6083(5) 0.4353(3) 0.9795(4)
O2_2 O 0.3955(5) 0.4982(3) 0.8406(4)
O3_3 O 0.3121(6) 0.8393(4) 0.6158(4)
O4_3 O 0.2902(5) 0.8410(4) 0.4715(4)
O7_3 O 0.0676(6) 0.8310(4) 0.6710(4)
O8_3 O 0.0368(6) 0.7671(4) 0.4950(5)
N1_3 N 0.3081(8) 0.5896(5) 0.5878(5)
N2_3 N 0.1183(10) 0.7393(6) 0.7783(7)
C1_3 C 0.3408(9) 0.5605(6) 0.6707(6)
H1_3 H 0.293323 0.518615 0.687108
C2_3 C 0.4402(8) 0.5888(5) 0.7332(5)
C3_3 C 0.5121(7) 0.6502(5) 0.7081(5)
H2_3 H 0.580180 0.670082 0.747763
C4_3 C 0.4824(8) 0.6825(5) 0.6228(6)
C5_3 C 0.3783(9) 0.6502(5) 0.5675(6)
H3_3 H 0.355756 0.672620 0.511728
C6_3 C 0.5541(7) 0.7483(5) 0.5921(5)
C7_3 C 0.4962(7) 0.8170(5) 0.5537(5)
C8_3 C 0.5668(8) 0.8770(5) 0.5236(6)
H4_3 H 0.526440 0.921322 0.495347
C9_3 C 0.6978(8) 0.8709(5) 0.5355(5)
C10_3 C 0.7559(8) 0.8033(5) 0.5735(6)
H5_3 H 0.843076 0.797969 0.580431
C11_3 C 0.6843(8) 0.7438(5) 0.6011(6)
H6_3 H 0.724961 0.698541 0.626885
C12_3 C 0.4639(8) 0.5558(5) 0.8251(5)
C13_3 C 0.3581(7) 0.8320(5) 0.5468(6)
C14_3 C 0.7722(7) 0.9385(5) 0.5074(6)
C15_3 C 0.0995(10) 0.7635(6) 0.6979(7)
H7_3 H 0.111275 0.726185 0.655472
C16_3 C 0.109(2) 0.7941(10) 0.8510(10)
H8_3 H 0.125556 0.765747 0.905967
H9_3 H 0.025044 0.816103 0.842928
H10_3 H 0.168884 0.836346 0.851695
C17_3 C 0.1453(15) 0.6563(9) 0.8038(10)
H11_3 H 0.156045 0.651508 0.866860
H12_3 H 0.221192 0.639595 0.784344
H13_3 H 0.076343 0.623200 0.776987
C18_3 C 0.0261(13) 0.7345(6) 0.4233(7)
H14_3 H 0.052124 0.763075 0.377941
H16_3 H 0.053243 0.626862 0.299141
H20_3 H 0.023233 0.606978 0.517087
O10_2 O 0.1045(5) 0.9982(3) 0.6594(4)
N3_3 N 0.9812(11) 0.6631(5) 0.4044(7)
C19_3 C 0.9710(19) 0.6293(9) 0.3151(10)
H15_3 H 0.936159 0.576574 0.314173
H17_3 H 0.916952 0.662289 0.273678
C20_3 C 0.950(2) 0.6153(9) 0.4729(12)
H18_3 H 0.918110 0.564821 0.449187
H19_3 H 0.885810 0.641530 0.498844
O4_4 O 0.2098(5) 0.3410(4) 0.0285(4)
O8_4 O 0.4632(6) 0.2671(4) 0.0050(5)
N3_4 N 0.5188(11) 0.1631(5) 0.0956(7)
C18_4 C 0.4739(13) 0.2345(6) 0.0767(7)
H14_4 H 0.447876 0.263075 0.122059
C19_4 C 0.5290(19) 0.1293(9) 0.1849(10)
H15_4 H 0.563841 0.076574 0.185827
H16_4 H 0.446757 0.126862 0.200859
H17_4 H 0.583048 0.162289 0.226322
C20_4 C 0.550(2) 0.1153(9) 0.0271(12)
H18_4 H 0.581890 0.064821 0.050813
H19_4 H 0.614190 0.141530 0.001156
O3_4 O 0.1879(6) 0.3393(4) 0.8842(4)
O7_4 O 0.4324(6) 0.3310(4) 0.8290(4)
N1_4 N 0.1919(8) 0.0896(5) 0.9122(5)
N2_4 N 0.3817(10) 0.2393(6) 0.7217(7)
C1_4 C 0.1592(9) 0.0605(6) 0.8293(6)
H1_4 H 0.206677 0.018615 0.812892
C2_4 C 0.0598(8) 0.0888(5) 0.7668(5)
C4_4 C 0.0176(8) 0.1825(5) 0.8772(6)
C5_4 C 0.1217(9) 0.1502(5) 0.9325(6)
H3_4 H 0.144244 0.172620 0.988272
C7_4 C 0.0038(7) 0.3170(5) 0.9463(5)
C12_4 C 0.0361(8) 0.0558(5) 0.6749(5)
C13_4 C 0.1419(7) 0.3320(5) 0.9532(6)
C15_4 C 0.4005(10) 0.2635(6) 0.8021(7)
H7_4 H 0.388725 0.226185 0.844528
C16_4 C 0.391(2) 0.2941(10) 0.6490(10)
H8_4 H 0.374444 0.265747 0.594033
H9_4 H 0.474956 0.316103 0.657072
H10_4 H 0.331116 0.336346 0.648305
C17_4 C 0.3547(15) 0.1563(9) 0.6962(10)
H11_4 H 0.343955 0.151508 0.633140
H12_4 H 0.278808 0.139595 0.715656
H13_4 H 0.423657 0.123200 0.723013
H20_4 H 0.476767 0.106978 0.982913
H4_4 H 0.973560 0.421322 0.004653
C3_4 C 0.9879(7) 0.1502(5) 0.7919(5)
H2_4 H 0.919820 0.170082 0.752237
C6_4 C 0.9459(7) 0.2483(5) 0.9079(5)
C8_4 C 0.9332(8) 0.3770(5) 0.9764(6)
C9_4 C 0.8022(8) 0.3709(5) 0.9645(5)
C10_4 C 0.7441(8) 0.3033(5) 0.9265(6)
H5_4 H 0.656924 0.297969 0.919569
C11_4 C 0.8157(8) 0.2438(5) 0.8989(6)
H6_4 H 0.775039 0.198541 0.873115
C14_4 C 0.7278(7) 0.4385(5) 0.9926(6)
loop_
_geom_bond_atom_site_label_1
_geom_bond_atom_site_label_2
_geom_bond_site_symmetry_1
_geom_bond_site_symmetry_2
C19 N3 1_555 1_555
H15 C19 1_555 1_555
H17 C19 1_555 1_555
C20 N3 1_555 1_555
H18 C20 1_555 1_555
H19 C20 1_555 1_555
Nd1 O3 1_555 1_555
O1 C12 1_555 1_555
O2 C12 1_555 1_555
O3 C13 1_555 1_555
O4 Nd1 1_555 1_555
O11 C14 1_555 1_555
O6 C14 1_555 1_555
O7 Nd1 1_555 1_555
O8 Nd1 1_555 1_555
N1 C1 1_555 1_555
N2 C15 1_555 1_555
C1 H1 1_555 1_555
C2 C1 1_555 1_555
C3 C2 1_555 1_555
H2 C3 1_555 1_555
C4 C3 1_555 1_555
C5 N1 1_555 1_555
H3 C5 1_555 1_555
C6 C4 1_555 1_555
C7 C6 1_555 1_555
C8 C7 1_555 1_555
H4 C8 1_555 1_555
C9 C8 1_555 1_555
C10 C9 1_555 1_555
H5 C10 1_555 1_555
C11 C6 1_555 1_555
H6 C11 1_555 1_555
C12 C2 1_555 1_555
C13 O4 1_555 1_555
C14 C9 1_555 1_555
C15 O7 1_555 1_555
H7 C15 1_555 1_555
C16 N2 1_555 1_555
H8 C16 1_555 1_555
H9 C16 1_555 1_555
H10 C16 1_555 1_555
C17 N2 1_555 1_555
H11 C17 1_555 1_555
H12 C17 1_555 1_555
H13 C17 1_555 1_555
C18 O8 1_555 1_555
H14 C18 1_555 1_555
Nd3 O2 1_555 1_555
O9 Nd1 1_555 1_555
O10 Nd1 1_555 1_555
C4 C5 1_555 1_555
C7 C13 1_555 1_555
C10 C11 1_555 1_555
O5 C14_2 1_555 1_555
H2_2 C3_2 1_555 1_555
C9_2 C8_2 1_555 1_555
C10_2 C9_2 1_555 1_555
H5_2 C10_2 1_555 1_555
C11_2 C6_2 1_555 1_555
H6_2 C11_2 1_555 1_555
C14_2 C9_2 1_555 1_555
Nd3 O5 1_555 1_555
Nd4 O1_2 1_555 1_555
C10_2 C11_2 1_555 1_555
O6_2 Nd5 1_555 1_555
Nd3 O3_2 1_555 1_555
O3_2 C13_2 1_555 1_555
O7_2 Nd3 1_555 1_555
N1_2 C1_2 1_555 1_555
N2_2 C15_2 1_555 1_555
C1_2 H1_2 1_555 1_555
C2_2 C1_2 1_555 1_555
C5_2 N1_2 1_555 1_555
H3_2 C5_2 1_555 1_555
C12_2 C2_2 1_555 1_555
C15_2 O7_2 1_555 1_555
H7_2 C15_2 1_555 1_555
C16_2 N2_2 1_555 1_555
H8_2 C16_2 1_555 1_555
H9_2 C16_2 1_555 1_555
H10_2 C16_2 1_555 1_555
C17_2 N2_2 1_555 1_555
H11_2 C17_2 1_555 1_555
H12_2 C17_2 1_555 1_555
H13_2 C17_2 1_555 1_555
O13_2 Nd3 1_555 1_555
C4_2 C5_2 1_555 1_555
C7_2 C13_2 1_555 1_555
N3_2 C18_2 1_555 1_555
C18_2 O8_2 1_555 1_555
H14_2 C18_2 1_555 1_555
C19_2 N3_2 1_555 1_555
H15_2 C19_2 1_555 1_555
H16_2 C19_2 1_555 1_555
H17_2 C19_2 1_555 1_555
C20_2 N3_2 1_555 1_555
H18_2 C20_2 1_555 1_555
H19_2 C20_2 1_555 1_555
Nd4 O3_3 1_555 1_555
O9_2 C12_3 1_555 1_555
O2_2 C12_3 1_555 1_555
O3_3 C13_3 1_555 1_555
O4_3 Nd4 1_555 1_555
O12 C14_3 1_555 1_555
O13 C14_3 1_555 1_555
O7_3 Nd4 1_555 1_555
O8_3 Nd4 1_555 1_555
N1_3 C1_3 1_555 1_555
N2_3 C15_3 1_555 1_555
C1_3 H1_3 1_555 1_555
C2_3 C1_3 1_555 1_555
C3_3 C2_3 1_555 1_555
H2_3 C3_3 1_555 1_555
C4_3 C3_3 1_555 1_555
C5_3 N1_3 1_555 1_555
H3_3 C5_3 1_555 1_555
C6_3 C4_3 1_555 1_555
C7_3 C6_3 1_555 1_555
C8_3 C7_3 1_555 1_555
H4_3 C8_3 1_555 1_555
C9_3 C8_3 1_555 1_555
C10_3 C9_3 1_555 1_555
H5_3 C10_3 1_555 1_555
C11_3 C6_3 1_555 1_555
H6_3 C11_3 1_555 1_555
C12_3 C2_3 1_555 1_555
C13_3 O4_3 1_555 1_555
C14_3 C9_3 1_555 1_555
C15_3 O7_3 1_555 1_555
H7_3 C15_3 1_555 1_555
C16_3 N2_3 1_555 1_555
H8_3 C16_3 1_555 1_555
H9_3 C16_3 1_555 1_555
H10_3 C16_3 1_555 1_555
C17_3 N2_3 1_555 1_555
H11_3 C17_3 1_555 1_555
H12_3 C17_3 1_555 1_555
H13_3 C17_3 1_555 1_555
C18_3 O8_3 1_555 1_555
H14_3 C18_3 1_555 1_555
Nd5 O2_2 1_555 1_555
O10_2 Nd4 1_555 1_555
C4_3 C5_3 1_555 1_555
C7_3 C13_3 1_555 1_555
C10_3 C11_3 1_555 1_555
C19_3 N3_3 1_555 1_555
H15_3 C19_3 1_555 1_555
H17_3 C19_3 1_555 1_555
C20_3 N3_3 1_555 1_555
H18_3 C20_3 1_555 1_555
H19_3 C20_3 1_555 1_555
N3_4 C18_4 1_555 1_555
C18_4 O8_4 1_555 1_555
H14_4 C18_4 1_555 1_555
C19_4 N3_4 1_555 1_555
H15_4 C19_4 1_555 1_555
H16_4 C19_4 1_555 1_555
H17_4 C19_4 1_555 1_555
C20_4 N3_4 1_555 1_555
H18_4 C20_4 1_555 1_555
H19_4 C20_4 1_555 1_555
Nd5 O3_4 1_555 1_555
O3_4 C13_4 1_555 1_555
O7_4 Nd5 1_555 1_555
N1_4 C1_4 1_555 1_555
N2_4 C15_4 1_555 1_555
C1_4 H1_4 1_555 1_555
C2_4 C1_4 1_555 1_555
C5_4 N1_4 1_555 1_555
H3_4 C5_4 1_555 1_555
C12_4 C2_4 1_555 1_555
C15_4 O7_4 1_555 1_555
H7_4 C15_4 1_555 1_555
C16_4 N2_4 1_555 1_555
H8_4 C16_4 1_555 1_555
H9_4 C16_4 1_555 1_555
H10_4 C16_4 1_555 1_555
C17_4 N2_4 1_555 1_555
H11_4 C17_4 1_555 1_555
H12_4 C17_4 1_555 1_555
H13_4 C17_4 1_555 1_555
O12_2 Nd5 1_555 1_555
C4_4 C5_4 1_555 1_555
C7_4 C13_4 1_555 1_555
O12_2 C14_4 1_555 1_555
H2_4 C3_4 1_555 1_555
C9_4 C8_4 1_555 1_555
C10_4 C9_4 1_555 1_555
H5_4 C10_4 1_555 1_555
C11_4 C6_4 1_555 1_555
H6_4 C11_4 1_555 1_555
C14_4 C9_4 1_555 1_555
C10_4 C11_4 1_555 1_555

#END
