
###############################################################################
#
# This file contains modified crystal structure data generated from the
# MOF subset of the Cambridge Structural Database (CSD) v543 
# hosted by the Cambridge Crystallographic Data Centre (CCDC).
#
# This work is licensed under the Creative Commons
# Attribution-NonCommercial-ShareAlike 4.0 International License.
# To view a copy of this license, visit
# http://creativecommons.org/licenses/by-nc-sa/4.0/
# or send a letter to
# Creative Commons, PO Box 1866, Mountain View, CA 94042, USA.
#
# CIF created using the CSD Python API on 29 September 2022
# The structure has been converted into the P1 space group
# The structure has a 3D framework
# The original CSD entry ZAKWER is in the monoclinic crystal system
# The framework has been calculated to contain at least 10.0% void space
# The void calculation uses a probe of radius 1.32A, grid spacing 0.4
#
###############################################################################

data_ZAKWER
_chemical_formula_moiety         '(C80 H80 N12 O30 Sm4)n'
_symmetry_cell_setting           triclinic
_symmetry_space_group_name_H-M   'P 1'
_symmetry_Int_Tables_number      1
_space_group_name_Hall           'P 1'
loop_
_symmetry_equiv_pos_site_id
_symmetry_equiv_pos_as_xyz
1 x,y,z
_cell_length_a                   10.694(3)
_cell_length_b                   16.741(5)
_cell_length_c                   15.269(5)
_cell_angle_alpha                90
_cell_angle_beta                 100.194(6)
_cell_angle_gamma                90
_cell_volume                     2690.43
loop_
_atom_site_label
_atom_site_type_symbol
_atom_site_fract_x
_atom_site_fract_y
_atom_site_fract_z
O1 O 0.1059(6) 0.5000(4) 0.1569(4)
O3 O 0.2117(6) 0.1587(4) 0.5252(5)
O4 O 0.1850(6) 0.1538(5) 0.3805(5)
N1 N 0.1950(10) 0.4068(6) 0.4080(7)
N3 N 0.0114(12) 0.1630(6) 0.0908(7)
C1 C 0.1613(11) 0.4376(6) 0.3264(8)
H1 H 0.2083 0.4802 0.3104
C2 C 0.0603(9) 0.4096(6) 0.2642(7)
C4 C 0.0199(9) 0.3156(5) 0.3735(7)
C5 C 0.1234(10) 0.3465(6) 0.4298(7)
H3 H 0.1451 0.3242 0.4862
C7 C 0.0035(9) 0.1806(6) 0.4423(6)
C12 C 0.0369(8) 0.4436(6) 0.1730(7)
C13 C 0.1414(9) 0.1638(5) 0.4493(7)
C19 C 0.045(2) 0.1138(10) 0.0214(12)
H15 H 0.0745 0.0628 0.0456
C20 C 0.021(2) 0.1298(10) 0.1798(11)
H18 H 0.0537 0.0764 0.1807
H19 H 0.0763 0.1623 0.2214
Sm3 Sm 0.11472(4) 0.59484(3) 0.04147(3)
Sm5 Sm 0.38528(4) 0.09484(3) 0.45853(3)
H17 H 0.1113 0.1393 0.9967
O13 O 0.1034(6) 0.4332(4) 0.9775(4)
O2 O 0.9493(6) 0.4121(4) 0.1180(4)
O5 O 0.6034(6) 0.0668(4) 0.4775(4)
O6 O 0.7797(6) 0.0019(4) 0.5245(5)
O8 O 0.9611(7) 0.2693(4) 0.0018(5)
C3 C 0.9896(8) 0.3483(5) 0.2900(6)
H2 H 0.9203 0.3286 0.2503
C6 C 0.9447(8) 0.2499(5) 0.4040(6)
C8 C 0.9295(8) 0.1217(6) 0.4714(6)
H4 H 0.9687 0.0760 0.4980
C9 C 0.7995(8) 0.1290(5) 0.4621(6)
C10 C 0.7429(9) 0.1969(5) 0.4243(7)
H5 H 0.6551 0.2026 0.4168
C11 C 0.8156(9) 0.2574(5) 0.3972(7)
H6 H 0.7760 0.3041 0.3739
C14 C 0.7234(9) 0.0619(6) 0.4890(6)
C18 C 0.9690(12) 0.2348(7) 0.0721(9)
H14 H 0.9417 0.2628 0.1179
H20 H 0.9378 0.1287 0.1959
O10 O 0.7117(6) 0.3413(4) 0.0252(5)
O12 O 0.8966(6) 0.5668(4) 0.0225(4)
Sm1 Sm 0.88528(4) 0.40516(3) 0.95853(3)
O7 O 0.9300(7) 0.3343(4) 0.8270(5)
N2 N 0.8815(11) 0.2441(7) 0.7178(7)
C15 C 0.8988(10) 0.2677(8) 0.7997(8)
H7 H 0.8861 0.2300 0.8420
C16 C 0.8545(19) 0.1603(10) 0.6924(11)
H8 H 0.8448 0.1551 0.6289
H9 H 0.9235 0.1272 0.7203
H10 H 0.7776 0.1438 0.7113
C17 C 0.888(2) 0.3020(11) 0.6460(11)
H11 H 0.8734 0.2750 0.5897
H12 H 0.8250 0.3426 0.6464
H13 H 0.9710 0.3262 0.6553
H16 H 0.9720 0.1063 0.9757
O9 O 0.8941(6) 0.5000(4) 0.8431(4)
O11 O 0.6850(6) 0.3462(5) 0.8805(5)
O14 O 0.7203(6) 0.5019(4) 0.9755(5)
Sm2 Sm 0.61472(4) 0.90516(3) 0.54147(3)
O1_2 O 0.3941(6) 0.0000(4) 0.3431(4)
O9_2 O 0.6059(6) 0.0000(4) 0.6569(4)
O1_3 O 0.3941(6) 1.0000(4) 0.3431(4)
O2_2 O 0.5507(6) 0.9121(4) 0.3820(4)
O4_2 O 0.3150(6) 0.6538(5) 0.1195(5)
O7_2 O 0.5700(7) 0.8343(4) 0.6730(5)
O8_2 O 0.5389(7) 0.7693(4) 0.4982(5)
N1_2 N 0.3050(10) 0.9068(6) 0.0920(7)
N2_2 N 0.6185(11) 0.7441(7) 0.7822(7)
N3_2 N 0.4886(12) 0.6630(6) 0.4092(7)
C1_2 C 0.3387(11) 0.9376(6) 0.1736(8)
H1_2 H 0.2917 0.9802 0.1896
C2_2 C 0.4397(9) 0.9096(6) 0.2358(7)
C3_2 C 0.5104(8) 0.8483(5) 0.2100(6)
H2_2 H 0.5797 0.8286 0.2497
C4_2 C 0.4801(9) 0.8156(5) 0.1265(7)
C5_2 C 0.3766(10) 0.8465(6) 0.0702(7)
H3_2 H 0.3549 0.8242 0.0138
C6_2 C 0.5553(8) 0.7499(5) 0.0960(6)
C7_2 C 0.4965(9) 0.6806(6) 0.0577(6)
C8_2 C 0.5705(8) 0.6217(6) 0.0286(6)
H4_2 H 0.5313 0.5760 0.0020
C9_2 C 0.7005(8) 0.6290(5) 0.0379(6)
C10_2 C 0.7571(9) 0.6969(5) 0.0757(7)
H5_2 H 0.8449 0.7026 0.0832
C11_2 C 0.6844(9) 0.7574(5) 0.1028(7)
H6_2 H 0.7240 0.8041 0.1261
C12_2 C 0.4631(8) 0.9436(6) 0.3270(7)
C13_2 C 0.3586(9) 0.6638(5) 0.0507(7)
C14_2 C 0.7766(9) 0.5619(6) 0.0110(6)
C15_2 C 0.6012(10) 0.7677(8) 0.7003(8)
H7_2 H 0.6139 0.7300 0.6580
C16_2 C 0.6455(19) 0.6603(10) 0.8076(11)
H8_2 H 0.6552 0.6551 0.8711
H9_2 H 0.5765 0.6272 0.7797
H10_2 H 0.7224 0.6438 0.7887
C17_2 C 0.612(2) 0.8020(11) 0.8540(11)
H11_2 H 0.6266 0.7750 0.9103
H12_2 H 0.6750 0.8426 0.8536
H13_2 H 0.5290 0.8262 0.8447
C18_2 C 0.5310(12) 0.7348(7) 0.4279(9)
H14_2 H 0.5583 0.7628 0.3821
C19_2 C 0.455(2) 0.6138(10) 0.4786(12)
H15_2 H 0.4255 0.5628 0.4544
H16_2 H 0.5280 0.6063 0.5243
H17_2 H 0.3887 0.6393 0.5033
C20_2 C 0.479(2) 0.6298(10) 0.3202(11)
H18_2 H 0.4463 0.5764 0.3193
H19_2 H 0.4237 0.6623 0.2786
H20_2 H 0.5622 0.6287 0.3041
O9_3 O 0.6059(6) 1.0000(4) 0.6569(4)
O10_2 O 0.7883(6) 0.8413(4) 0.4748(5)
O11_2 O 0.8150(6) 0.8462(5) 0.6195(5)
O13_2 O 0.3966(6) 0.9332(4) 0.5225(4)
O3_2 O 0.2883(6) 0.6587(4) 0.9748(5)
O7_3 O 0.0700(7) 0.6657(4) 0.1730(5)
N2_3 N 0.1185(11) 0.7559(7) 0.2822(7)
C15_3 C 0.1012(10) 0.7323(8) 0.2003(8)
H7_3 H 0.1139 0.7700 0.1580
C16_3 C 0.1455(19) 0.8397(10) 0.3076(11)
H8_3 H 0.1552 0.8449 0.3711
H9_3 H 0.0765 0.8728 0.2797
H10_3 H 0.2224 0.8562 0.2887
C17_3 C 0.112(2) 0.6980(11) 0.3540(11)
H11_3 H 0.1266 0.7250 0.4103
H12_3 H 0.1750 0.6574 0.3536
H13_3 H 0.0290 0.6738 0.3447
H16_3 H 0.0280 0.8937 0.0243
O14_2 O 0.2797(6) 0.4981(4) 0.0245(5)
O2_3 O 0.0507(6) 0.5879(4) 0.8820(4)
O6_2 O 0.2203(6) 0.9981(4) 0.4755(5)
O8_3 O 0.0389(7) 0.7307(4) 0.9982(5)
C3_3 C 0.0104(8) 0.6517(5) 0.7100(6)
H2_3 H 0.0797 0.6714 0.7497
C6_3 C 0.0553(8) 0.7501(5) 0.5960(6)
C8_3 C 0.0705(8) 0.8783(6) 0.5286(6)
H4_3 H 0.0313 0.9240 0.5020
C9_3 C 0.2005(8) 0.8710(5) 0.5379(6)
C10_3 C 0.2571(9) 0.8031(5) 0.5757(7)
H5_3 H 0.3449 0.7974 0.5832
C11_3 C 0.1844(9) 0.7426(5) 0.6028(7)
H6_3 H 0.2240 0.6959 0.6261
C14_3 C 0.2766(9) 0.9381(6) 0.5110(6)
C18_3 C 0.0310(12) 0.7652(7) 0.9279(9)
H14_3 H 0.0583 0.7372 0.8821
H20_3 H 0.0622 0.8713 0.8041
H17_3 H 0.8887 0.8607 0.0033
N1_3 N 0.8050(10) 0.5932(6) 0.5920(7)
N3_3 N 0.9886(12) 0.8370(6) 0.9092(7)
C1_3 C 0.8387(11) 0.5624(6) 0.6736(8)
H1_3 H 0.7917 0.5198 0.6896
C2_3 C 0.9397(9) 0.5904(6) 0.7358(7)
C4_3 C 0.9801(9) 0.6844(5) 0.6265(7)
C5_3 C 0.8766(10) 0.6535(6) 0.5702(7)
H3_3 H 0.8549 0.6758 0.5138
C7_3 C 0.9965(9) 0.8194(6) 0.5577(6)
C12_3 C 0.9631(8) 0.5564(6) 0.8270(7)
C13_3 C 0.8586(9) 0.8362(5) 0.5507(7)
C19_3 C 0.955(2) 0.8862(10) 0.9786(12)
H15_3 H 0.9255 0.9372 0.9544
C20_3 C 0.979(2) 0.8702(10) 0.8202(11)
H18_3 H 0.9463 0.9236 0.8193
H19_3 H 0.9237 0.8377 0.7786
O2_4 O 0.4493(6) 0.0879(4) 0.6180(4)
O7_4 O 0.4300(7) 0.1657(4) 0.3270(5)
O8_4 O 0.4611(7) 0.2307(4) 0.5018(5)
N1_4 N 0.6950(10) 0.0932(6) 0.9080(7)
N2_4 N 0.3815(11) 0.2559(7) 0.2178(7)
N3_4 N 0.5114(12) 0.3370(6) 0.5908(7)
C1_4 C 0.6613(11) 0.0624(6) 0.8264(8)
H1_4 H 0.7083 0.0198 0.8104
C2_4 C 0.5603(9) 0.0904(6) 0.7642(7)
C3_4 C 0.4896(8) 0.1517(5) 0.7900(6)
H2_4 H 0.4203 0.1714 0.7503
C4_4 C 0.5199(9) 0.1844(5) 0.8735(7)
C5_4 C 0.6234(10) 0.1535(6) 0.9298(7)
H3_4 H 0.6451 0.1758 0.9862
C6_4 C 0.4447(8) 0.2501(5) 0.9040(6)
C7_4 C 0.5035(9) 0.3194(6) 0.9423(6)
C8_4 C 0.4295(8) 0.3783(6) 0.9714(6)
H4_4 H 0.4687 0.4240 0.9980
C9_4 C 0.2995(8) 0.3710(5) 0.9621(6)
C10_4 C 0.2429(9) 0.3031(5) 0.9243(7)
H5_4 H 0.1551 0.2974 0.9168
C11_4 C 0.3156(9) 0.2426(5) 0.8972(7)
H6_4 H 0.2760 0.1959 0.8739
C12_4 C 0.5369(8) 0.0564(6) 0.6730(7)
C13_4 C 0.6414(9) 0.3362(5) 0.9493(7)
C14_4 C 0.2234(9) 0.4381(6) 0.9890(6)
C15_4 C 0.3988(10) 0.2323(8) 0.2997(8)
H7_4 H 0.3861 0.2700 0.3420
C16_4 C 0.3545(19) 0.3397(10) 0.1924(11)
H8_4 H 0.3448 0.3449 0.1289
H9_4 H 0.4235 0.3728 0.2203
H10_4 H 0.2776 0.3562 0.2113
C17_4 C 0.388(2) 0.1980(11) 0.1460(11)
H11_4 H 0.3734 0.2250 0.0897
H12_4 H 0.3250 0.1574 0.1464
H13_4 H 0.4710 0.1738 0.1553
C18_4 C 0.4690(12) 0.2652(7) 0.5721(9)
H14_4 H 0.4417 0.2372 0.6179
C19_4 C 0.545(2) 0.3862(10) 0.5214(12)
H15_4 H 0.5745 0.4372 0.5456
H16_4 H 0.4720 0.3937 0.4757
H17_4 H 0.6113 0.3607 0.4967
C20_4 C 0.521(2) 0.3702(10) 0.6798(11)
H18_4 H 0.5537 0.4236 0.6807
H19_4 H 0.5763 0.3377 0.7214
H20_4 H 0.4378 0.3713 0.6959
loop_
_geom_bond_atom_site_label_1
_geom_bond_atom_site_label_2
_geom_bond_site_symmetry_1
_geom_bond_site_symmetry_2
O1 C12 1_555 1_555
O3 C13 1_555 1_555
O4 C13 1_555 1_555
N1 C1 1_555 1_555
C1 H1 1_555 1_555
C2 C1 1_555 1_555
C5 N1 1_555 1_555
H3 C5 1_555 1_555
C12 C2 1_555 1_555
C13 C7 1_555 1_555
C19 N3 1_555 1_555
H15 C19 1_555 1_555
C20 N3 1_555 1_555
H18 C20 1_555 1_555
H19 C20 1_555 1_555
Sm3 O1 1_555 1_555
Sm5 O3 1_555 1_555
O4 Sm5 1_555 1_555
C4 C5 1_555 1_555
O5 C14 1_555 1_555
O6 C14 1_555 1_555
H2 C3 1_555 1_555
H4 C8 1_555 1_555
C9 C8 1_555 1_555
C10 C9 1_555 1_555
H5 C10 1_555 1_555
C11 C6 1_555 1_555
H6 C11 1_555 1_555
C14 C9 1_555 1_555
C18 O8 1_555 1_555
H14 C18 1_555 1_555
Sm5 O5 1_555 1_555
C10 C11 1_555 1_555
O7 Sm1 1_555 1_555
N2 C15 1_555 1_555
C15 O7 1_555 1_555
H7 C15 1_555 1_555
C16 N2 1_555 1_555
H8 C16 1_555 1_555
H9 C16 1_555 1_555
H10 C16 1_555 1_555
C17 N2 1_555 1_555
H11 C17 1_555 1_555
H12 C17 1_555 1_555
H13 C17 1_555 1_555
O9 Sm1 1_555 1_555
O11 Sm1 1_555 1_555
O14 Sm1 1_555 1_555
Sm5 O1_2 1_555 1_555
Sm2 O2_2 1_555 1_555
O1_3 C12_2 1_555 1_555
O2_2 C12_2 1_555 1_555
O4_2 C13_2 1_555 1_555
O12 C14_2 1_555 1_555
O7_2 Sm2 1_555 1_555
O8_2 Sm2 1_555 1_555
N1_2 C1_2 1_555 1_555
N2_2 C15_2 1_555 1_555
N3_2 C18_2 1_555 1_555
C1_2 H1_2 1_555 1_555
C2_2 C1_2 1_555 1_555
C3_2 C2_2 1_555 1_555
H2_2 C3_2 1_555 1_555
C4_2 C3_2 1_555 1_555
C5_2 N1_2 1_555 1_555
H3_2 C5_2 1_555 1_555
C6_2 C4_2 1_555 1_555
C7_2 C6_2 1_555 1_555
C8_2 C7_2 1_555 1_555
H4_2 C8_2 1_555 1_555
C9_2 C8_2 1_555 1_555
C10_2 C9_2 1_555 1_555
H5_2 C10_2 1_555 1_555
C11_2 C6_2 1_555 1_555
H6_2 C11_2 1_555 1_555
C12_2 C2_2 1_555 1_555
C13_2 C7_2 1_555 1_555
C14_2 C9_2 1_555 1_555
C15_2 O7_2 1_555 1_555
H7_2 C15_2 1_555 1_555
C16_2 N2_2 1_555 1_555
H8_2 C16_2 1_555 1_555
H9_2 C16_2 1_555 1_555
H10_2 C16_2 1_555 1_555
C17_2 N2_2 1_555 1_555
H11_2 C17_2 1_555 1_555
H12_2 C17_2 1_555 1_555
H13_2 C17_2 1_555 1_555
C18_2 O8_2 1_555 1_555
H14_2 C18_2 1_555 1_555
C19_2 N3_2 1_555 1_555
H15_2 C19_2 1_555 1_555
H16_2 C19_2 1_555 1_555
H17_2 C19_2 1_555 1_555
C20_2 N3_2 1_555 1_555
H18_2 C20_2 1_555 1_555
H19_2 C20_2 1_555 1_555
H20_2 C20_2 1_555 1_555
O9_3 Sm2 1_555 1_555
O10_2 Sm2 1_555 1_555
O11_2 Sm2 1_555 1_555
O13_2 Sm2 1_555 1_555
O4_2 Sm3 1_555 1_555
C4_2 C5_2 1_555 1_555
C10_2 C11_2 1_555 1_555
O7_3 Sm3 1_555 1_555
N2_3 C15_3 1_555 1_555
C15_3 O7_3 1_555 1_555
H7_3 C15_3 1_555 1_555
C16_3 N2_3 1_555 1_555
H8_3 C16_3 1_555 1_555
H9_3 C16_3 1_555 1_555
H10_3 C16_3 1_555 1_555
C17_3 N2_3 1_555 1_555
H11_3 C17_3 1_555 1_555
H12_3 C17_3 1_555 1_555
H13_3 C17_3 1_555 1_555
O14_2 Sm3 1_555 1_555
O13_2 C14_3 1_555 1_555
O6_2 C14_3 1_555 1_555
H2_3 C3_3 1_555 1_555
H4_3 C8_3 1_555 1_555
C9_3 C8_3 1_555 1_555
C10_3 C9_3 1_555 1_555
H5_3 C10_3 1_555 1_555
C11_3 C6_3 1_555 1_555
H6_3 C11_3 1_555 1_555
C14_3 C9_3 1_555 1_555
C18_3 O8_3 1_555 1_555
H14_3 C18_3 1_555 1_555
C10_3 C11_3 1_555 1_555
O9 C12_3 1_555 1_555
O10_2 C13_3 1_555 1_555
O11_2 C13_3 1_555 1_555
N1_3 C1_3 1_555 1_555
C1_3 H1_3 1_555 1_555
C2_3 C1_3 1_555 1_555
C5_3 N1_3 1_555 1_555
H3_3 C5_3 1_555 1_555
C12_3 C2_3 1_555 1_555
C13_3 C7_3 1_555 1_555
C19_3 N3_3 1_555 1_555
H15_3 C19_3 1_555 1_555
C20_3 N3_3 1_555 1_555
H18_3 C20_3 1_555 1_555
H19_3 C20_3 1_555 1_555
C4_3 C5_3 1_555 1_555
Sm5 O2_4 1_555 1_555
O9_2 C12_4 1_555 1_555
O2_4 C12_4 1_555 1_555
O11 C13_4 1_555 1_555
O13 C14_4 1_555 1_555
O7_4 Sm5 1_555 1_555
O8_4 Sm5 1_555 1_555
N1_4 C1_4 1_555 1_555
N2_4 C15_4 1_555 1_555
N3_4 C18_4 1_555 1_555
C1_4 H1_4 1_555 1_555
C2_4 C1_4 1_555 1_555
C3_4 C2_4 1_555 1_555
H2_4 C3_4 1_555 1_555
C4_4 C3_4 1_555 1_555
C5_4 N1_4 1_555 1_555
H3_4 C5_4 1_555 1_555
C6_4 C4_4 1_555 1_555
C7_4 C6_4 1_555 1_555
C8_4 C7_4 1_555 1_555
H4_4 C8_4 1_555 1_555
C9_4 C8_4 1_555 1_555
C10_4 C9_4 1_555 1_555
H5_4 C10_4 1_555 1_555
C11_4 C6_4 1_555 1_555
H6_4 C11_4 1_555 1_555
C12_4 C2_4 1_555 1_555
C13_4 C7_4 1_555 1_555
C14_4 C9_4 1_555 1_555
C15_4 O7_4 1_555 1_555
H7_4 C15_4 1_555 1_555
C16_4 N2_4 1_555 1_555
H8_4 C16_4 1_555 1_555
H9_4 C16_4 1_555 1_555
H10_4 C16_4 1_555 1_555
C17_4 N2_4 1_555 1_555
H11_4 C17_4 1_555 1_555
H12_4 C17_4 1_555 1_555
H13_4 C17_4 1_555 1_555
C18_4 O8_4 1_555 1_555
H14_4 C18_4 1_555 1_555
C19_4 N3_4 1_555 1_555
H15_4 C19_4 1_555 1_555
H16_4 C19_4 1_555 1_555
H17_4 C19_4 1_555 1_555
C20_4 N3_4 1_555 1_555
H18_4 C20_4 1_555 1_555
H19_4 C20_4 1_555 1_555
H20_4 C20_4 1_555 1_555
C4_4 C5_4 1_555 1_555
C10_4 C11_4 1_555 1_555

#END
