
###############################################################################
#
# This file contains modified crystal structure data generated from the
# MOF subset of the Cambridge Structural Database (CSD) v543 
# hosted by the Cambridge Crystallographic Data Centre (CCDC).
#
# This work is licensed under the Creative Commons
# Attribution-NonCommercial-ShareAlike 4.0 International License.
# To view a copy of this license, visit
# http://creativecommons.org/licenses/by-nc-sa/4.0/
# or send a letter to
# Creative Commons, PO Box 1866, Mountain View, CA 94042, USA.
#
# CIF created using the CSD Python API on 29 September 2022
# The structure has been converted into the P1 space group
# The structure has a 3D framework
# The original CSD entry ZAKWUH is in the monoclinic crystal system
# The framework has been calculated to contain at least 10.0% void space
# The void calculation uses a probe of radius 1.32A, grid spacing 0.4
#
###############################################################################

data_ZAKWUH
_chemical_formula_moiety         '(C80 H82 Gd4 N12 O30)n'
_symmetry_cell_setting           triclinic
_symmetry_space_group_name_H-M   'P 1'
_symmetry_Int_Tables_number      1
_space_group_name_Hall           'P 1'
loop_
_symmetry_equiv_pos_site_id
_symmetry_equiv_pos_as_xyz
1 x,y,z
_cell_length_a                   10.7408(19)
_cell_length_b                   16.494(3)
_cell_length_c                   15.272(3)
_cell_angle_alpha                90
_cell_angle_beta                 101.229(7)
_cell_angle_gamma                90
_cell_volume                     2653.78
loop_
_atom_site_label
_atom_site_type_symbol
_atom_site_fract_x
_atom_site_fract_y
_atom_site_fract_z
O1 O 0.0480(4) 0.4169(3) 0.3812(3)
O5 O 0.4000(4) 0.0731(3) 0.0214(3)
N3 N 0.0334(13) 0.8355(5) 0.5996(9)
C3 C 0.0110(6) 0.3562(4) 0.2082(4)
H2 H 0.0816 0.3380 0.2487
C6 C 0.0570(5) 0.2565(4) 0.0928(4)
C8 C 0.0730(5) 0.1247(4) 0.0263(4)
C9 C 0.2040(5) 0.1326(4) 0.0395(4)
C10 C 0.2595(6) 0.2016(4) 0.0799(5)
H5 H 0.3473 0.2071 0.0897
C11 C 0.1871(6) 0.2633(4) 0.1065(5)
H6 H 0.2268 0.3095 0.1337
C14 C 0.2821(5) 0.0640(4) 0.0124(4)
H9 H 0.0525 0.7189 0.1955
C19 C 0.073(2) 0.8867(12) 0.5342(14)
H15 H 0.1165 0.9332 0.5632
H16 H 0.1291 0.8571 0.5041
H17 H -0.0000 0.9041 0.4916
C20 C 0.0376(19) 0.8676(12) 0.6947(12)
H18 H 0.0853 0.9171 0.7030
H20 H 0.0773 0.8281 0.7373
Gd3 Gd 0.61673(2) 0.09840(2) 0.03760(2)
Gd4 Gd 0.11673(2) 0.40160(2) 0.53760(2)
O12 O 0.1000(4) 0.5731(3) 0.4786(3)
O6 O 0.2275(4) 0.0016(3) 0.9805(3)
H4 H 0.0343 0.0784 0.9988
Gd5 Gd 0.38327(2) 0.90160(2) 0.96240(2)
Gd1 Gd 0.88327(2) 0.59840(2) 0.46240(2)
O2 O 0.8873(4) 0.5054(3) 0.3432(3)
O3 O 0.8144(4) 0.1593(3) 0.1123(3)
O7 O 0.9256(5) 0.6732(3) 0.3331(3)
O8 O 0.9595(6) 0.7330(3) 0.5099(4)
N1 N 0.8067(8) 0.4187(5) 0.0852(5)
N2 N 0.8967(13) 0.7689(8) 0.2271(7)
C1 C 0.8355(8) 0.4464(5) 0.1686(5)
H1 H 0.7859 0.4879 0.1848
C2 C 0.9344(6) 0.4175(4) 0.2325(4)
C4 C 0.9805(6) 0.3218(4) 0.1215(4)
C5 C 0.8783(7) 0.3572(5) 0.0638(5)
H3 H 0.8579 0.3369 0.0059
C7 C 0.9987(5) 0.1853(3) 0.0537(4)
C12 C 0.9590(5) 0.4498(4) 0.3258(4)
C13 C 0.8579(5) 0.1684(3) 0.0426(4)
C15 C 0.8905(8) 0.7389(6) 0.3041(6)
H7 H 0.8544 0.7720 0.3417
C16 C 0.9653(18) 0.7255(10) 0.1668(11)
H8 H 0.9607 0.7561 0.1128
H10 H 0.9273 0.6732 0.1529
C17 C 0.8518(15) 0.8490(9) 0.1984(10)
H11 H 0.8659 0.8586 0.1391
H12 H 0.7627 0.8529 0.1987
H13 H 0.8970 0.8887 0.2384
C18 C 0.9701(13) 0.7661(7) 0.5756(7)
H14 H 0.9304 0.7426 0.6183
H17_2 H 1.0000 0.9041 0.4916
H19 H 0.9527 0.8776 0.7033
O9 O 0.9520(4) 0.5831(3) 0.6188(3)
O10 O 0.6856(4) 0.6593(3) 0.3877(3)
O11 O 0.7102(4) 0.6624(3) 0.5337(3)
O13 O 0.7275(4) 0.4984(3) 0.4805(3)
O4 O 0.7898(4) 0.1624(3) 0.9663(3)
O2_2 O 0.6127(4) 0.0054(3) 0.1568(3)
O7_2 O 0.5744(5) 0.1732(3) 0.1669(3)
N2_2 N 0.6033(13) 0.2689(8) 0.2729(7)
C15_2 C 0.6095(8) 0.2389(6) 0.1959(6)
H7_2 H 0.6456 0.2720 0.1583
C16_2 C 0.5347(18) 0.2255(10) 0.3332(11)
H8_2 H 0.5393 0.2561 0.3872
H9_2 H 0.4475 0.2189 0.3045
H10_2 H 0.5727 0.1732 0.3471
C17_2 C 0.6482(15) 0.3490(9) 0.3016(10)
H11_2 H 0.6341 0.3586 0.3609
H12_2 H 0.7373 0.3529 0.3013
H13_2 H 0.6030 0.3887 0.2616
H17_3 H 0.5000 0.4041 0.0084
O8_2 O 0.5405(6) 0.2330(3) 0.9901(4)
N3_2 N 0.4666(13) 0.3355(5) 0.9004(9)
C18_2 C 0.5299(13) 0.2661(7) 0.9244(7)
H14_2 H 0.5696 0.2426 0.8817
C19_2 C 0.427(2) 0.3867(12) 0.9658(14)
H15_2 H 0.3835 0.4332 0.9368
H16_2 H 0.3709 0.3571 0.9959
C20_2 C 0.4624(19) 0.3676(12) 0.8053(12)
H18_2 H 0.4147 0.4171 0.7970
H19_2 H 0.5473 0.3776 0.7967
H20_2 H 0.4227 0.3281 0.7627
O9_2 O 0.5480(4) 0.0831(3) 0.8812(3)
O1_2 O 0.4520(4) 0.9169(3) 0.1188(3)
O6_2 O 0.2725(4) 0.5016(3) 0.5195(3)
N1_2 N 0.6933(8) 0.9187(5) 0.4148(5)
C1_2 C 0.6645(8) 0.9464(5) 0.3314(5)
H1_2 H 0.7141 0.9879 0.3152
C2_2 C 0.5656(6) 0.9175(4) 0.2675(4)
C3_2 C 0.4890(6) 0.8562(4) 0.2918(4)
H2_2 H 0.4184 0.8380 0.2513
C4_2 C 0.5195(6) 0.8218(4) 0.3785(4)
C5_2 C 0.6217(7) 0.8572(5) 0.4362(5)
H3_2 H 0.6421 0.8369 0.4941
C6_2 C 0.4430(5) 0.7565(4) 0.4072(4)
C7_2 C 0.5013(5) 0.6853(3) 0.4463(4)
C8_2 C 0.4270(5) 0.6247(4) 0.4737(4)
H4_2 H 0.4657 0.5784 0.5012
C9_2 C 0.2960(5) 0.6326(4) 0.4605(4)
C10_2 C 0.2405(6) 0.7016(4) 0.4201(5)
H5_2 H 0.1527 0.7071 0.4103
C11_2 C 0.3129(6) 0.7633(4) 0.3935(5)
H6_2 H 0.2732 0.8095 0.3663
C12_2 C 0.5410(5) 0.9498(4) 0.1742(4)
C13_2 C 0.6421(5) 0.6684(3) 0.4574(4)
C14_2 C 0.2179(5) 0.5640(4) 0.4876(4)
O13_2 O 0.7725(4) 0.9984(3) 0.0195(3)
O4_2 O 0.2102(4) 0.8376(3) 0.0337(3)
O2_3 O 0.1127(4) 0.4946(3) 0.6568(3)
O3_2 O 0.1856(4) 0.8407(3) 0.8877(3)
O7_3 O 0.0744(5) 0.3268(3) 0.6669(3)
O8_3 O 0.0405(6) 0.2670(3) 0.4901(4)
N1_3 N 0.1933(8) 0.5813(5) 0.9148(5)
N2_3 N 0.1033(13) 0.2311(8) 0.7729(7)
C1_3 C 0.1645(8) 0.5536(5) 0.8314(5)
H1_3 H 0.2141 0.5121 0.8152
C2_3 C 0.0656(6) 0.5825(4) 0.7675(4)
C4_3 C 0.0195(6) 0.6782(4) 0.8785(4)
C5_3 C 0.1217(7) 0.6428(5) 0.9362(5)
H3_3 H 0.1421 0.6631 0.9941
C7_3 C 0.0013(5) 0.8147(3) 0.9463(4)
C12_3 C 0.0410(5) 0.5502(4) 0.6742(4)
C13_3 C 0.1421(5) 0.8316(3) 0.9574(4)
C15_3 C 0.1095(8) 0.2611(6) 0.6959(6)
H7_3 H 0.1456 0.2280 0.6583
C16_3 C 0.0347(18) 0.2745(10) 0.8332(11)
H8_3 H 0.0393 0.2439 0.8872
H10_3 H 0.0727 0.3268 0.8471
C17_3 C 0.1482(15) 0.1510(9) 0.8016(10)
H11_3 H 0.1341 0.1414 0.8609
H12_3 H 0.2373 0.1471 0.8013
H13_3 H 0.1030 0.1113 0.7616
C18_3 C 0.0299(13) 0.2339(7) 0.4244(7)
H14_3 H 0.0696 0.2574 0.3817
H17_4 H 0.0000 0.0959 0.5084
H19_3 H 0.0473 0.1224 0.2967
O10_2 O 0.3144(4) 0.3407(3) 0.6123(3)
O11_2 O 0.2898(4) 0.3376(3) 0.4663(3)
H4_3 H 0.9657 0.9216 0.0012
O5_2 O 0.6000(4) 0.9269(3) 0.9786(3)
N3_3 N 0.9666(13) 0.1645(5) 0.4004(9)
C3_3 C 0.9890(6) 0.6438(4) 0.7918(4)
H2_3 H 0.9184 0.6620 0.7513
C6_3 C 0.9430(5) 0.7435(4) 0.9072(4)
C8_3 C 0.9270(5) 0.8753(4) 0.9737(4)
C9_3 C 0.7960(5) 0.8674(4) 0.9605(4)
C10_3 C 0.7405(6) 0.7984(4) 0.9201(5)
H5_3 H 0.6527 0.7929 0.9103
C11_3 C 0.8129(6) 0.7367(4) 0.8935(5)
H6_3 H 0.7732 0.6905 0.8663
C14_3 C 0.7179(5) 0.9360(4) 0.9876(4)
H9_3 H 0.9475 0.2811 0.8045
C19_3 C 0.927(2) 0.1133(12) 0.4658(14)
H15_3 H 0.8835 0.0668 0.4368
H16_3 H 0.8709 0.1429 0.4959
H17_5 H 1.0000 0.0959 0.5084
C20_3 C 0.9624(19) 0.1324(12) 0.3053(12)
H18_3 H 0.9147 0.0829 0.2970
H20_3 H 0.9227 0.1719 0.2627
O12_2 O 0.9000(4) 0.4269(3) 0.5214(3)
N1_4 N 0.3067(8) 0.0813(5) 0.5852(5)
C1_4 C 0.3355(8) 0.0536(5) 0.6686(5)
H1_4 H 0.2859 0.0121 0.6848
C2_4 C 0.4344(6) 0.0825(4) 0.7325(4)
C3_4 C 0.5110(6) 0.1438(4) 0.7082(4)
H2_4 H 0.5816 0.1620 0.7487
C4_4 C 0.4805(6) 0.1782(4) 0.6215(4)
C5_4 C 0.3783(7) 0.1428(5) 0.5638(5)
H3_4 H 0.3579 0.1631 0.5059
C6_4 C 0.5570(5) 0.2435(4) 0.5928(4)
C7_4 C 0.4987(5) 0.3147(3) 0.5537(4)
C8_4 C 0.5730(5) 0.3753(4) 0.5263(4)
H4_4 H 0.5343 0.4216 0.4988
C9_4 C 0.7040(5) 0.3674(4) 0.5395(4)
C10_4 C 0.7595(6) 0.2984(4) 0.5799(5)
H5_4 H 0.8473 0.2929 0.5897
C11_4 C 0.6871(6) 0.2367(4) 0.6065(5)
H6_4 H 0.7268 0.1905 0.6337
C12_4 C 0.4590(5) 0.0502(4) 0.8258(4)
C13_4 C 0.3579(5) 0.3316(3) 0.5426(4)
C14_4 C 0.7821(5) 0.4360(4) 0.5124(4)
O8_4 O 0.4595(6) 0.7670(3) 0.0099(4)
N3_4 N 0.5334(13) 0.6645(5) 0.0996(9)
C18_4 C 0.4701(13) 0.7339(7) 0.0756(7)
H14_4 H 0.4304 0.7574 0.1183
C19_4 C 0.573(2) 0.6133(12) 0.0342(14)
H15_4 H 0.6165 0.5668 0.0632
H16_4 H 0.6291 0.6429 0.0041
C20_4 C 0.5376(19) 0.6324(12) 0.1947(12)
H18_4 H 0.5853 0.5829 0.2030
H19_4 H 0.4527 0.6224 0.2033
H20_4 H 0.5773 0.6719 0.2373
O2_4 O 0.3873(4) 0.9946(3) 0.8432(3)
O7_4 O 0.4256(5) 0.8268(3) 0.8331(3)
N2_4 N 0.3967(13) 0.7311(8) 0.7271(7)
C15_4 C 0.3905(8) 0.7611(6) 0.8041(6)
H7_4 H 0.3544 0.7280 0.8417
C16_4 C 0.4653(18) 0.7745(10) 0.6668(11)
H8_4 H 0.4607 0.7439 0.6128
H9_4 H 0.5525 0.7811 0.6955
H10_4 H 0.4273 0.8268 0.6529
C17_4 C 0.3518(15) 0.6510(9) 0.6984(10)
H11_4 H 0.3659 0.6414 0.6391
H12_4 H 0.2627 0.6471 0.6987
H13_4 H 0.3970 0.6113 0.7384
H17_6 H 0.5000 0.5959 0.9916
loop_
_geom_bond_atom_site_label_1
_geom_bond_atom_site_label_2
_geom_bond_site_symmetry_1
_geom_bond_site_symmetry_2
O5 C14 1_555 1_555
H2 C3 1_555 1_555
C9 C8 1_555 1_555
C10 C9 1_555 1_555
H5 C10 1_555 1_555
C11 C6 1_555 1_555
H6 C11 1_555 1_555
C14 C9 1_555 1_555
C19 N3 1_555 1_555
H15 C19 1_555 1_555
H16 C19 1_555 1_555
H17 C19 1_555 1_555
C20 N3 1_555 1_555
H18 C20 1_555 1_555
H20 C20 1_555 1_555
Gd3 O5 1_555 1_555
Gd4 O1 1_555 1_555
C10 C11 1_555 1_555
Gd1 O2 1_555 1_555
O2 C12 1_555 1_555
O3 C13 1_555 1_555
O7 Gd1 1_555 1_555
O8 Gd1 1_555 1_555
N1 C1 1_555 1_555
N2 C15 1_555 1_555
C1 H1 1_555 1_555
C2 C1 1_555 1_555
C5 N1 1_555 1_555
H3 C5 1_555 1_555
C12 C2 1_555 1_555
C13 C7 1_555 1_555
C15 O7 1_555 1_555
H7 C15 1_555 1_555
C16 N2 1_555 1_555
H8 C16 1_555 1_555
H10 C16 1_555 1_555
C17 N2 1_555 1_555
H11 C17 1_555 1_555
H12 C17 1_555 1_555
H13 C17 1_555 1_555
C18 O8 1_555 1_555
H14 C18 1_555 1_555
Gd3 O3 1_555 1_555
O9 Gd1 1_555 1_555
O10 Gd1 1_555 1_555
O11 Gd1 1_555 1_555
O13 Gd1 1_555 1_555
C4 C5 1_555 1_555
Gd3 O2_2 1_555 1_555
O7_2 Gd3 1_555 1_555
N2_2 C15_2 1_555 1_555
C15_2 O7_2 1_555 1_555
H7_2 C15_2 1_555 1_555
C16_2 N2_2 1_555 1_555
H8_2 C16_2 1_555 1_555
H9_2 C16_2 1_555 1_555
H10_2 C16_2 1_555 1_555
C17_2 N2_2 1_555 1_555
H11_2 C17_2 1_555 1_555
H12_2 C17_2 1_555 1_555
H13_2 C17_2 1_555 1_555
N3_2 C18_2 1_555 1_555
C18_2 O8_2 1_555 1_555
H14_2 C18_2 1_555 1_555
C19_2 N3_2 1_555 1_555
H15_2 C19_2 1_555 1_555
H16_2 C19_2 1_555 1_555
C20_2 N3_2 1_555 1_555
H18_2 C20_2 1_555 1_555
H19_2 C20_2 1_555 1_555
H20_2 C20_2 1_555 1_555
O1_2 C12_2 1_555 1_555
O10 C13_2 1_555 1_555
O11 C13_2 1_555 1_555
O12 C14_2 1_555 1_555
O6_2 C14_2 1_555 1_555
N1_2 C1_2 1_555 1_555
C1_2 H1_2 1_555 1_555
C2_2 C1_2 1_555 1_555
C3_2 C2_2 1_555 1_555
H2_2 C3_2 1_555 1_555
C4_2 C3_2 1_555 1_555
C5_2 N1_2 1_555 1_555
H3_2 C5_2 1_555 1_555
C6_2 C4_2 1_555 1_555
C7_2 C6_2 1_555 1_555
C8_2 C7_2 1_555 1_555
H4_2 C8_2 1_555 1_555
C9_2 C8_2 1_555 1_555
C10_2 C9_2 1_555 1_555
H5_2 C10_2 1_555 1_555
C11_2 C6_2 1_555 1_555
H6_2 C11_2 1_555 1_555
C12_2 C2_2 1_555 1_555
C13_2 C7_2 1_555 1_555
C14_2 C9_2 1_555 1_555
Gd4 O6_2 1_555 1_555
C4_2 C5_2 1_555 1_555
C10_2 C11_2 1_555 1_555
Gd4 O2_3 1_555 1_555
O2_3 C12_3 1_555 1_555
O3_2 C13_3 1_555 1_555
O7_3 Gd4 1_555 1_555
O8_3 Gd4 1_555 1_555
N1_3 C1_3 1_555 1_555
N2_3 C15_3 1_555 1_555
C1_3 H1_3 1_555 1_555
C2_3 C1_3 1_555 1_555
C5_3 N1_3 1_555 1_555
H3_3 C5_3 1_555 1_555
C12_3 C2_3 1_555 1_555
C13_3 C7_3 1_555 1_555
C15_3 O7_3 1_555 1_555
H7_3 C15_3 1_555 1_555
C16_3 N2_3 1_555 1_555
H8_3 C16_3 1_555 1_555
H10_3 C16_3 1_555 1_555
C17_3 N2_3 1_555 1_555
H11_3 C17_3 1_555 1_555
H12_3 C17_3 1_555 1_555
H13_3 C17_3 1_555 1_555
C18_3 O8_3 1_555 1_555
H14_3 C18_3 1_555 1_555
Gd5 O3_2 1_555 1_555
O10_2 Gd4 1_555 1_555
O11_2 Gd4 1_555 1_555
C4_3 C5_3 1_555 1_555
O5_2 C14_3 1_555 1_555
H2_3 C3_3 1_555 1_555
C9_3 C8_3 1_555 1_555
C10_3 C9_3 1_555 1_555
H5_3 C10_3 1_555 1_555
C11_3 C6_3 1_555 1_555
H6_3 C11_3 1_555 1_555
C14_3 C9_3 1_555 1_555
C19_3 N3_3 1_555 1_555
H15_3 C19_3 1_555 1_555
H16_3 C19_3 1_555 1_555
H17_5 C19_3 1_555 1_555
C20_3 N3_3 1_555 1_555
H18_3 C20_3 1_555 1_555
H20_3 C20_3 1_555 1_555
Gd5 O5_2 1_555 1_555
C10_3 C11_3 1_555 1_555
O9_2 C12_4 1_555 1_555
O10_2 C13_4 1_555 1_555
O11_2 C13_4 1_555 1_555
O12_2 C14_4 1_555 1_555
O13 C14_4 1_555 1_555
N1_4 C1_4 1_555 1_555
C1_4 H1_4 1_555 1_555
C2_4 C1_4 1_555 1_555
C3_4 C2_4 1_555 1_555
H2_4 C3_4 1_555 1_555
C4_4 C3_4 1_555 1_555
C5_4 N1_4 1_555 1_555
H3_4 C5_4 1_555 1_555
C6_4 C4_4 1_555 1_555
C7_4 C6_4 1_555 1_555
C8_4 C7_4 1_555 1_555
H4_4 C8_4 1_555 1_555
C9_4 C8_4 1_555 1_555
C10_4 C9_4 1_555 1_555
H5_4 C10_4 1_555 1_555
C11_4 C6_4 1_555 1_555
H6_4 C11_4 1_555 1_555
C12_4 C2_4 1_555 1_555
C13_4 C7_4 1_555 1_555
C14_4 C9_4 1_555 1_555
C4_4 C5_4 1_555 1_555
C10_4 C11_4 1_555 1_555
N3_4 C18_4 1_555 1_555
C18_4 O8_4 1_555 1_555
H14_4 C18_4 1_555 1_555
C19_4 N3_4 1_555 1_555
H15_4 C19_4 1_555 1_555
H16_4 C19_4 1_555 1_555
C20_4 N3_4 1_555 1_555
H18_4 C20_4 1_555 1_555
H19_4 C20_4 1_555 1_555
H20_4 C20_4 1_555 1_555
Gd5 O2_4 1_555 1_555
O7_4 Gd5 1_555 1_555
N2_4 C15_4 1_555 1_555
C15_4 O7_4 1_555 1_555
H7_4 C15_4 1_555 1_555
C16_4 N2_4 1_555 1_555
H8_4 C16_4 1_555 1_555
H9_4 C16_4 1_555 1_555
H10_4 C16_4 1_555 1_555
C17_4 N2_4 1_555 1_555
H11_4 C17_4 1_555 1_555
H12_4 C17_4 1_555 1_555
H13_4 C17_4 1_555 1_555

#END
