
###############################################################################
#
# This file contains modified crystal structure data generated from the
# MOF subset of the Cambridge Structural Database (CSD) v543 
# hosted by the Cambridge Crystallographic Data Centre (CCDC).
#
# This work is licensed under the Creative Commons
# Attribution-NonCommercial-ShareAlike 4.0 International License.
# To view a copy of this license, visit
# http://creativecommons.org/licenses/by-nc-sa/4.0/
# or send a letter to
# Creative Commons, PO Box 1866, Mountain View, CA 94042, USA.
#
# CIF created using the CSD Python API on 29 September 2022
# The structure has been converted into the P1 space group
# The structure has a 3D framework
# The original CSD entry ZAKWAN is in the monoclinic crystal system
# The framework has been calculated to contain at least 10.0% void space
# The void calculation uses a probe of radius 1.32A, grid spacing 0.4
#
###############################################################################

data_ZAKWAN
_chemical_formula_moiety         '(C80 H80 Eu4 N12 O30)n'
_symmetry_cell_setting           triclinic
_symmetry_space_group_name_H-M   'P 1'
_symmetry_Int_Tables_number      1
_space_group_name_Hall           'P 1'
loop_
_symmetry_equiv_pos_site_id
_symmetry_equiv_pos_as_xyz
1 x,y,z
_cell_length_a                   10.732(5)
_cell_length_b                   16.724(8)
_cell_length_c                   15.297(7)
_cell_angle_alpha                90
_cell_angle_beta                 100.584(9)
_cell_angle_gamma                90
_cell_volume                     2698.82
loop_
_atom_site_label
_atom_site_type_symbol
_atom_site_fract_x
_atom_site_fract_y
_atom_site_fract_z
Eu2 Eu 0.11569(5) 0.09563(3) 0.04079(4)
O1 O 0.5503(8) 0.4136(5) 0.3825(5)
O2 O 0.3931(7) 0.5012(5) 0.3438(6)
O3 O 0.3154(8) 0.1541(6) 0.1175(6)
O5 O 0.8971(7) 0.0694(5) 0.0225(6)
O7 O 0.0732(8) 0.1668(6) 0.1717(6)
N1 N 0.3066(12) 0.4093(8) 0.0896(8)
N2 N 0.1152(15) 0.2581(10) 0.2818(11)
C1 C 0.3366(12) 0.4396(9) 0.1716(10)
H1 H 0.2879 0.4814 0.1872
C2 C 0.4379(11) 0.4112(7) 0.2353(8)
C3 C 0.5112(9) 0.3503(7) 0.2114(8)
H2 H 0.5814 0.3318 0.2512
C4 C 0.4784(10) 0.3158(7) 0.1250(8)
C5 C 0.3769(13) 0.3479(8) 0.0699(9)
H3 H 0.3542 0.3253 0.0137
C6 C 0.5564(10) 0.2511(7) 0.0970(8)
C7 C 0.4980(10) 0.1820(7) 0.0565(8)
C8 C 0.5725(10) 0.1221(6) 0.0278(8)
H4 H 0.5338 0.0763 0.0010
C9 C 0.7024(10) 0.1300(7) 0.0390(8)
C10 C 0.7575(10) 0.1985(8) 0.0770(8)
H5 H 0.8448 0.2050 0.0836
C11 C 0.6857(11) 0.2580(8) 0.1059(9)
H6 H 0.7256 0.3037 0.1319
C12 C 0.4617(10) 0.4452(8) 0.3274(9)
C13 C 0.3583(11) 0.1650(7) 0.0485(10)
C14 C 0.7764(10) 0.0619(7) 0.0112(8)
C15 C 0.1064(14) 0.2339(11) 0.1992(12)
H7 H 0.1269 0.2705 0.1583
C16 C 0.098(4) 0.2027(17) 0.3543(19)
H8 H 0.1081 0.2316 0.4093
H9 H 0.0148 0.1797 0.3412
H10 H 0.1604 0.1610 0.3592
C17 C 0.150(2) 0.3398(15) 0.3096(15)
H11 H 0.1513 0.3452 0.3722
H12 H 0.2330 0.3515 0.2974
H13 H 0.0897 0.3764 0.2774
H20 H 0.0200 0.3943 0.0197
Eu3 Eu 0.38431(5) 0.59563(3) 0.45921(4)
Eu5 Eu 0.61569(5) 0.40437(3) 0.54079(4)
O10 O 0.1069(7) 0.0012(5) 0.1562(6)
O4 O 0.2890(7) 0.1584(6) 0.9729(6)
O6 O 0.7242(7) 0.0027(5) 0.9777(6)
O8 O 0.0395(9) 0.2313(6) 0.9961(7)
C18 C 0.0320(18) 0.2652(10) 0.9261(12)
H14 H 0.0630 0.2381 0.8815
H16 H 0.0698 0.3747 0.8068
O9 O 0.0503(8) 0.0864(5) 0.8825(5)
O13 O 0.2758(7) 0.9973(5) 0.0223(6)
Eu4 Eu 0.88431(5) 0.90437(3) 0.95921(4)
O12 O 0.1029(7) 0.9306(5) 0.9775(6)
O3_2 O 0.1846(8) 0.6541(6) 0.3825(6)
O4_2 O 0.2110(7) 0.6584(6) 0.5271(6)
O7_2 O 0.4268(8) 0.6668(6) 0.3283(6)
O8_2 O 0.4605(9) 0.7313(6) 0.5039(7)
N1_2 N 0.1934(12) 0.9093(8) 0.4104(8)
N2_2 N 0.3848(15) 0.7581(10) 0.2182(11)
N3 N 0.5152(15) 0.8365(8) 0.5937(11)
C1_2 C 0.1634(12) 0.9396(9) 0.3284(10)
H1_2 H 0.2121 0.9814 0.3128
C2_2 C 0.0621(11) 0.9112(7) 0.2647(8)
C4_2 C 0.0216(10) 0.8158(7) 0.3750(8)
C5_2 C 0.1231(13) 0.8479(8) 0.4301(9)
H3_2 H 0.1458 0.8253 0.4863
C7_2 C 0.0020(10) 0.6820(7) 0.4435(8)
C12_2 C 0.0383(10) 0.9452(8) 0.1726(9)
C13_2 C 0.1417(11) 0.6650(7) 0.4515(10)
C15_2 C 0.3936(14) 0.7339(11) 0.3008(12)
H7_2 H 0.3731 0.7705 0.3417
C16_2 C 0.402(4) 0.7027(17) 0.1457(19)
H8_2 H 0.3919 0.7316 0.0907
H9_2 H 0.4852 0.6797 0.1588
H10_2 H 0.3396 0.6610 0.1408
C17_2 C 0.350(2) 0.8398(15) 0.1904(15)
H11_2 H 0.3487 0.8452 0.1278
H12_2 H 0.2670 0.8515 0.2026
H13_2 H 0.4103 0.8764 0.2226
C18_2 C 0.4680(18) 0.7652(10) 0.5739(12)
H14_2 H 0.4370 0.7381 0.6185
C19 C 0.516(3) 0.8707(14) 0.6831(15)
H15 H 0.5534 0.9229 0.6867
H16_2 H 0.4302 0.8747 0.6932
H17 H 0.5637 0.8367 0.7275
C20 C 0.552(3) 0.8847(14) 0.5264(18)
H18 H 0.5846 0.9348 0.5516
H19 H 0.6166 0.8576 0.5018
H20_2 H 0.4800 0.8943 0.4803
O9_2 O 0.4497(8) 0.5864(5) 0.6175(5)
O11 O 0.6029(7) 0.5694(5) 0.4775(6)
O12_2 O 0.3971(7) 0.4306(5) 0.5225(6)
O13_2 O 0.2242(7) 0.4973(5) 0.4777(6)
O1_2 O 0.9497(8) 0.9136(5) 0.1175(5)
O6_2 O 0.7758(7) 0.5027(5) 0.5223(6)
C3_2 C 0.9888(9) 0.8503(7) 0.2886(8)
H2_2 H 0.9186 0.8318 0.2488
C6_2 C 0.9436(10) 0.7511(7) 0.4030(8)
C8_2 C 0.9275(10) 0.6221(6) 0.4722(8)
H4_2 H 0.9662 0.5763 0.4990
C9_2 C 0.7976(10) 0.6300(7) 0.4610(8)
C10_2 C 0.7425(10) 0.6985(8) 0.4230(8)
H5_2 H 0.6552 0.7050 0.4164
C11_2 C 0.8143(11) 0.7580(8) 0.3941(9)
H6_2 H 0.7744 0.8037 0.3681
C14_2 C 0.7236(10) 0.5619(7) 0.4888(8)
O4_3 O 0.7110(7) 0.8416(6) 0.0271(6)
O8_3 O 0.9605(9) 0.7687(6) 0.0039(7)
C18_3 C 0.9680(18) 0.7348(10) 0.0739(12)
H14_3 H 0.9370 0.7619 0.1185
H16_3 H 0.9302 0.6253 0.1932
O2_2 O 0.6069(7) 0.4988(5) 0.6562(6)
O3_3 O 0.6846(8) 0.8459(6) 0.8825(6)
O7_3 O 0.9268(8) 0.8332(6) 0.8283(6)
N1_3 N 0.6934(12) 0.5907(8) 0.9104(8)
N2_3 N 0.8848(15) 0.7419(10) 0.7182(11)
C1_3 C 0.6634(12) 0.5604(9) 0.8284(10)
H1_3 H 0.7121 0.5186 0.8128
C2_3 C 0.5621(11) 0.5888(7) 0.7647(8)
C3_3 C 0.4888(9) 0.6497(7) 0.7886(8)
H2_3 H 0.4186 0.6682 0.7488
C4_3 C 0.5216(10) 0.6842(7) 0.8750(8)
C5_3 C 0.6231(13) 0.6521(8) 0.9301(9)
H3_3 H 0.6458 0.6747 0.9863
C6_3 C 0.4436(10) 0.7489(7) 0.9030(8)
C7_3 C 0.5020(10) 0.8180(7) 0.9435(8)
C8_3 C 0.4275(10) 0.8779(6) 0.9722(8)
H4_3 H 0.4662 0.9237 0.9990
C9_3 C 0.2976(10) 0.8700(7) 0.9610(8)
C10_3 C 0.2425(10) 0.8015(8) 0.9230(8)
H5_3 H 0.1552 0.7950 0.9164
C11_3 C 0.3143(11) 0.7420(8) 0.8941(9)
H6_3 H 0.2744 0.6963 0.8681
C12_3 C 0.5383(10) 0.5548(8) 0.6726(9)
C13_3 C 0.6417(11) 0.8350(7) 0.9515(10)
C14_3 C 0.2236(10) 0.9381(7) 0.9888(8)
C15_3 C 0.8936(14) 0.7661(11) 0.8008(12)
H7_3 H 0.8731 0.7295 0.8417
C16_3 C 0.902(4) 0.7973(17) 0.6457(19)
H8_3 H 0.8919 0.7684 0.5907
H9_3 H 0.9852 0.8203 0.6588
H10_3 H 0.8396 0.8390 0.6408
C17_3 C 0.850(2) 0.6602(15) 0.6904(15)
H11_3 H 0.8487 0.6548 0.6278
H12_3 H 0.7670 0.6485 0.7026
H13_3 H 0.9103 0.6236 0.7226
H20_3 H 0.9800 0.6057 0.9803
O10_2 O 0.8931(7) 0.9988(5) 0.8438(6)
C3_4 C 0.0112(9) 0.1497(7) 0.7114(8)
H2_4 H 0.0814 0.1682 0.7512
C6_4 C 0.0564(10) 0.2489(7) 0.5970(8)
C8_4 C 0.0725(10) 0.3779(6) 0.5278(8)
H4_4 H 0.0338 0.4237 0.5010
C9_4 C 0.2024(10) 0.3700(7) 0.5390(8)
C10_4 C 0.2575(10) 0.3015(8) 0.5770(8)
H5_4 H 0.3448 0.2950 0.5836
C11_4 C 0.1857(11) 0.2420(8) 0.6059(9)
H6_4 H 0.2256 0.1963 0.6319
C14_4 C 0.2764(10) 0.4381(7) 0.5112(8)
O3_4 O 0.8154(8) 0.3459(6) 0.6175(6)
O4_4 O 0.7890(7) 0.3416(6) 0.4729(6)
O7_4 O 0.5732(8) 0.3332(6) 0.6717(6)
O8_4 O 0.5395(9) 0.2687(6) 0.4961(7)
N1_4 N 0.8066(12) 0.0907(8) 0.5896(8)
N2_4 N 0.6152(15) 0.2419(10) 0.7818(11)
N3_2 N 0.4848(15) 0.1635(8) 0.4063(11)
C1_4 C 0.8366(12) 0.0604(9) 0.6716(10)
H1_4 H 0.7879 0.0186 0.6872
C2_4 C 0.9379(11) 0.0888(7) 0.7353(8)
C4_4 C 0.9784(10) 0.1842(7) 0.6250(8)
C5_4 C 0.8769(13) 0.1521(8) 0.5699(9)
H3_4 H 0.8542 0.1747 0.5137
C7_4 C 0.9980(10) 0.3180(7) 0.5565(8)
C12_4 C 0.9617(10) 0.0548(8) 0.8274(9)
C13_4 C 0.8583(11) 0.3350(7) 0.5485(10)
C15_4 C 0.6064(14) 0.2661(11) 0.6992(12)
H7_4 H 0.6269 0.2295 0.6583
C16_4 C 0.598(4) 0.2973(17) 0.8543(19)
H8_4 H 0.6081 0.2684 0.9093
H9_4 H 0.5148 0.3203 0.8412
H10_4 H 0.6604 0.3390 0.8592
C17_4 C 0.650(2) 0.1602(15) 0.8096(15)
H11_4 H 0.6513 0.1548 0.8722
H12_4 H 0.7330 0.1485 0.7974
H13_4 H 0.5897 0.1236 0.7774
C18_4 C 0.5320(18) 0.2348(10) 0.4261(12)
H14_4 H 0.5630 0.2619 0.3815
C19_2 C 0.484(3) 0.1293(14) 0.3169(15)
H15_2 H 0.4466 0.0771 0.3133
H16_4 H 0.5698 0.1253 0.3068
H17_2 H 0.4363 0.1633 0.2725
C20_2 C 0.448(3) 0.1153(14) 0.4736(18)
H18_2 H 0.4154 0.0652 0.4484
H19_2 H 0.3834 0.1424 0.4982
H20_4 H 0.5200 0.1057 0.5197
N3_3 N 0.9848(15) 0.3365(8) 0.9063(11)
C19_3 C 0.984(3) 0.3707(14) 0.8169(15)
H15_3 H 0.9466 0.4229 0.8133
H17_3 H 0.9363 0.3367 0.7725
C20_3 C 0.948(3) 0.3847(14) 0.9736(18)
H18_3 H 0.9154 0.4348 0.9484
H19_3 H 0.8834 0.3576 0.9982
N3_4 N 0.0152(15) 0.6635(8) 0.0937(11)
C19_4 C 0.016(3) 0.6293(14) 0.1831(15)
H15_4 H 0.0534 0.5771 0.1867
H17_4 H 0.0637 0.6633 0.2275
C20_4 C 0.052(3) 0.6153(14) 0.0264(18)
H18_4 H 0.0846 0.5652 0.0516
H19_4 H 0.1166 0.6424 0.0018
loop_
_geom_bond_atom_site_label_1
_geom_bond_atom_site_label_2
_geom_bond_site_symmetry_1
_geom_bond_site_symmetry_2
Eu2 O3 1_555 1_555
O1 C12 1_555 1_555
O2 C12 1_555 1_555
O3 C13 1_555 1_555
O5 C14 1_555 1_555
O7 Eu2 1_555 1_555
N1 C1 1_555 1_555
N2 C15 1_555 1_555
C1 H1 1_555 1_555
C2 C1 1_555 1_555
C3 C2 1_555 1_555
H2 C3 1_555 1_555
C4 C3 1_555 1_555
C5 N1 1_555 1_555
H3 C5 1_555 1_555
C6 C4 1_555 1_555
C7 C6 1_555 1_555
C8 C7 1_555 1_555
H4 C8 1_555 1_555
C9 C8 1_555 1_555
C10 C9 1_555 1_555
H5 C10 1_555 1_555
C11 C6 1_555 1_555
H6 C11 1_555 1_555
C12 C2 1_555 1_555
C14 C9 1_555 1_555
C15 O7 1_555 1_555
H7 C15 1_555 1_555
C16 N2 1_555 1_555
H8 C16 1_555 1_555
H9 C16 1_555 1_555
H10 C16 1_555 1_555
C17 N2 1_555 1_555
H11 C17 1_555 1_555
H12 C17 1_555 1_555
H13 C17 1_555 1_555
Eu3 O2 1_555 1_555
Eu5 O1 1_555 1_555
O10 Eu2 1_555 1_555
C4 C5 1_555 1_555
C7 C13 1_555 1_555
C10 C11 1_555 1_555
C18 O8 1_555 1_555
H14 C18 1_555 1_555
Eu3 O3_2 1_555 1_555
O3_2 C13_2 1_555 1_555
O4_2 Eu3 1_555 1_555
O7_2 Eu3 1_555 1_555
O8_2 Eu3 1_555 1_555
N1_2 C1_2 1_555 1_555
N2_2 C15_2 1_555 1_555
N3 C18_2 1_555 1_555
C1_2 H1_2 1_555 1_555
C2_2 C1_2 1_555 1_555
C5_2 N1_2 1_555 1_555
H3_2 C5_2 1_555 1_555
C12_2 C2_2 1_555 1_555
C13_2 O4_2 1_555 1_555
C15_2 O7_2 1_555 1_555
H7_2 C15_2 1_555 1_555
C16_2 N2_2 1_555 1_555
H8_2 C16_2 1_555 1_555
H9_2 C16_2 1_555 1_555
H10_2 C16_2 1_555 1_555
C17_2 N2_2 1_555 1_555
H11_2 C17_2 1_555 1_555
H12_2 C17_2 1_555 1_555
H13_2 C17_2 1_555 1_555
C18_2 O8_2 1_555 1_555
H14_2 C18_2 1_555 1_555
C19 N3 1_555 1_555
H15 C19 1_555 1_555
H16_2 C19 1_555 1_555
H17 C19 1_555 1_555
C20 N3 1_555 1_555
H18 C20 1_555 1_555
H19 C20 1_555 1_555
H20_2 C20 1_555 1_555
O9_2 Eu3 1_555 1_555
O11 Eu3 1_555 1_555
O12_2 Eu3 1_555 1_555
O13_2 Eu3 1_555 1_555
C4_2 C5_2 1_555 1_555
C7_2 C13_2 1_555 1_555
O11 C14_2 1_555 1_555
O6_2 C14_2 1_555 1_555
H2_2 C3_2 1_555 1_555
H4_2 C8_2 1_555 1_555
C9_2 C8_2 1_555 1_555
C10_2 C9_2 1_555 1_555
H5_2 C10_2 1_555 1_555
C11_2 C6_2 1_555 1_555
H6_2 C11_2 1_555 1_555
C14_2 C9_2 1_555 1_555
Eu5 O11 1_555 1_555
O6_2 Eu5 1_555 1_555
C10_2 C11_2 1_555 1_555
C18_3 O8_3 1_555 1_555
H14_3 C18_3 1_555 1_555
Eu4 O3_3 1_555 1_555
O9_2 C12_3 1_555 1_555
O2_2 C12_3 1_555 1_555
O3_3 C13_3 1_555 1_555
O12 C14_3 1_555 1_555
O7_3 Eu4 1_555 1_555
N1_3 C1_3 1_555 1_555
N2_3 C15_3 1_555 1_555
C1_3 H1_3 1_555 1_555
C2_3 C1_3 1_555 1_555
C3_3 C2_3 1_555 1_555
H2_3 C3_3 1_555 1_555
C4_3 C3_3 1_555 1_555
C5_3 N1_3 1_555 1_555
H3_3 C5_3 1_555 1_555
C6_3 C4_3 1_555 1_555
C7_3 C6_3 1_555 1_555
C8_3 C7_3 1_555 1_555
H4_3 C8_3 1_555 1_555
C9_3 C8_3 1_555 1_555
C10_3 C9_3 1_555 1_555
H5_3 C10_3 1_555 1_555
C11_3 C6_3 1_555 1_555
H6_3 C11_3 1_555 1_555
C12_3 C2_3 1_555 1_555
C14_3 C9_3 1_555 1_555
C15_3 O7_3 1_555 1_555
H7_3 C15_3 1_555 1_555
C16_3 N2_3 1_555 1_555
H8_3 C16_3 1_555 1_555
H9_3 C16_3 1_555 1_555
H10_3 C16_3 1_555 1_555
C17_3 N2_3 1_555 1_555
H11_3 C17_3 1_555 1_555
H12_3 C17_3 1_555 1_555
H13_3 C17_3 1_555 1_555
Eu5 O2_2 1_555 1_555
O10_2 Eu4 1_555 1_555
C4_3 C5_3 1_555 1_555
C7_3 C13_3 1_555 1_555
C10_3 C11_3 1_555 1_555
O12_2 C14_4 1_555 1_555
O13_2 C14_4 1_555 1_555
H2_4 C3_4 1_555 1_555
H4_4 C8_4 1_555 1_555
C9_4 C8_4 1_555 1_555
C10_4 C9_4 1_555 1_555
H5_4 C10_4 1_555 1_555
C11_4 C6_4 1_555 1_555
H6_4 C11_4 1_555 1_555
C14_4 C9_4 1_555 1_555
Eu5 O12_2 1_555 1_555
C10_4 C11_4 1_555 1_555
Eu5 O3_4 1_555 1_555
O3_4 C13_4 1_555 1_555
O4_4 Eu5 1_555 1_555
O7_4 Eu5 1_555 1_555
O8_4 Eu5 1_555 1_555
N1_4 C1_4 1_555 1_555
N2_4 C15_4 1_555 1_555
N3_2 C18_4 1_555 1_555
C1_4 H1_4 1_555 1_555
C2_4 C1_4 1_555 1_555
C5_4 N1_4 1_555 1_555
H3_4 C5_4 1_555 1_555
C12_4 C2_4 1_555 1_555
C13_4 O4_4 1_555 1_555
C15_4 O7_4 1_555 1_555
H7_4 C15_4 1_555 1_555
C16_4 N2_4 1_555 1_555
H8_4 C16_4 1_555 1_555
H9_4 C16_4 1_555 1_555
H10_4 C16_4 1_555 1_555
C17_4 N2_4 1_555 1_555
H11_4 C17_4 1_555 1_555
H12_4 C17_4 1_555 1_555
H13_4 C17_4 1_555 1_555
C18_4 O8_4 1_555 1_555
H14_4 C18_4 1_555 1_555
C19_2 N3_2 1_555 1_555
H15_2 C19_2 1_555 1_555
H16_4 C19_2 1_555 1_555
H17_2 C19_2 1_555 1_555
C20_2 N3_2 1_555 1_555
H18_2 C20_2 1_555 1_555
H19_2 C20_2 1_555 1_555
H20_4 C20_2 1_555 1_555
C4_4 C5_4 1_555 1_555
C7_4 C13_4 1_555 1_555
C19_3 N3_3 1_555 1_555
H15_3 C19_3 1_555 1_555
H17_3 C19_3 1_555 1_555
C20_3 N3_3 1_555 1_555
H18_3 C20_3 1_555 1_555
H19_3 C20_3 1_555 1_555
C19_4 N3_4 1_555 1_555
H15_4 C19_4 1_555 1_555
H17_4 C19_4 1_555 1_555
C20_4 N3_4 1_555 1_555
H18_4 C20_4 1_555 1_555
H19_4 C20_4 1_555 1_555

#END
