
###############################################################################
#
# This file contains modified crystal structure data generated from the
# MOF subset of the Cambridge Structural Database (CSD) v543 
# hosted by the Cambridge Crystallographic Data Centre (CCDC).
#
# This work is licensed under the Creative Commons
# Attribution-NonCommercial-ShareAlike 4.0 International License.
# To view a copy of this license, visit
# http://creativecommons.org/licenses/by-nc-sa/4.0/
# or send a letter to
# Creative Commons, PO Box 1866, Mountain View, CA 94042, USA.
#
# CIF created using the CSD Python API on 29 September 2022
# The structure has been converted into the P1 space group
# The structure has a 3D framework
# The original CSD entry ZALGEB is in the triclinic crystal system
# The framework has been calculated to contain at least 10.0% void space
# The void calculation uses a probe of radius 1.32A, grid spacing 0.4
# H atom positions have been added when not included in the experimental data
# Generated hydrogen atom positions removed from atoms on special positions
#
###############################################################################

data_ZALGEB
_chemical_formula_moiety         '(C16 H44 Al4 Eu2 Mo12 N2 Na2 O65)n'
_symmetry_cell_setting           triclinic
_symmetry_space_group_name_H-M   'P 1'
_symmetry_Int_Tables_number      1
_space_group_name_Hall           'P 1'
loop_
_symmetry_equiv_pos_site_id
_symmetry_equiv_pos_as_xyz
1 x,y,z
_cell_length_a                   12.932(6)
_cell_length_b                   14.338(6)
_cell_length_c                   14.510(6)
_cell_angle_alpha                104.7430(10)
_cell_angle_beta                 108.981(5)
_cell_angle_gamma                108.119(4)
_cell_volume                     2220.62
loop_
_atom_site_label
_atom_site_type_symbol
_atom_site_fract_x
_atom_site_fract_y
_atom_site_fract_z
Na4 Na 0.4532(7) 0.0574(6) 0.0933(6)
O77 O 0.6266(11) 0.0276(10) 0.0960(10)
H23 H 0.71402 0.166941 0.00650715
O2 O 0.6307(9) 0.0212(9) 0.4101(9)
H3 H 0.7583 0.0237 0.3159
O34 O 0.6656(14) 0.1210(11) 0.9296(11)
Eu5 Eu 0.50194(7) 0.10271(6) 0.43055(6)
O72 O 0.5914(10) 0.0912(9) 0.5937(9)
O74 O 0.6483(10) 0.0564(9) 0.7328(9)
H22 H 0.61087 0.150556 0.895943
Al2 Al 0.5000 0.5000 0.0000
O20 O 0.5519(10) 0.6412(9) 0.0070(9)
O24 O 0.3801(11) 0.6781(10) 0.0236(9)
Mo10 Mo 0.61273(13) 0.35898(11) 0.11061(12)
Mo11 Mo 0.64052(12) 0.59142(11) 0.25936(11)
Mo12 Mo 0.53146(13) 0.73175(12) 0.14861(12)
O47 O 0.5628(9) 0.1510(9) 0.2936(9)
O49 O 0.6503(9) 0.5228(9) 0.1040(9)
O50 O 0.5704(10) 0.4372(10) 0.2109(9)
O51 O 0.7623(11) 0.3996(10) 0.1916(10)
O53 O 0.5406(13) 0.2346(10) 0.1048(10)
O54 O 0.4699(9) 0.5553(9) 0.1158(9)
O55 O 0.6699(10) 0.7138(9) 0.2269(9)
O56 O 0.7885(10) 0.6199(9) 0.3367(9)
O57 O 0.5778(12) 0.6164(10) 0.3459(9)
O58 O 0.6008(12) 0.8505(10) 0.1427(9)
O59 O 0.4783(13) 0.7575(11) 0.2419(11)
O61 O 0.2975(13) 0.1093(12) 0.1075(13)
Mo3 Mo 0.95852(11) 0.26434(10) 0.35082(10)
Al1 Al 1.0000 0.5000 0.5000
O8 O 0.9767(9) 0.6178(8) 0.4791(8)
O11 O 0.9423(9) 0.4166(8) 0.3532(9)
O15 O 0.8774(10) 0.1921(9) 0.2184(10)
Mo7 Mo 0.85786(11) 0.28758(10) 0.53191(11)
Mo8 Mo 0.89574(12) 0.52130(11) 0.68046(11)
O35 O 0.7088(10) 0.2397(9) 0.5134(9)
O36 O 0.8514(9) 0.4371(8) 0.5054(8)
O37 O 0.9349(10) 0.4020(8) 0.6692(8)
O39 O 0.8211(9) 0.2362(9) 0.3825(8)
O40 O 0.9125(9) 0.2027(9) 0.5683(9)
O42 O 0.8925(10) 0.6376(9) 0.6421(9)
O43 O 0.7469(10) 0.4622(9) 0.6599(9)
O44 O 0.9772(11) 0.5882(9) 0.8143(9)
O46 O 0.9833(10) 0.8122(9) 0.5986(9)
O63 O 0.3469(10) 0.0709(9) 0.4881(9)
O67 O 0.3564(12) 0.1561(11) 0.3241(11)
O68 O 0.5293(12) 0.2758(11) 0.5443(13)
N2 N 0.0983(11) 0.1327(10) 0.5769(10)
C9 C 0.0714(14) 0.1021(13) 0.6498(12)
H8 H 0.0168 0.1205 0.6727
C10 C 0.1261(14) 0.0426(13) 0.6904(14)
H9 H 0.1086 0.0194 0.7416
C11 C 0.2046(15) 0.0175(12) 0.6572(13)
C12 C 0.2295(15) 0.0536(12) 0.5829(13)
C13 C 0.1783(14) 0.1124(13) 0.5443(13)
H11 H 0.1980 0.1388 0.4955
C14 C 0.3241(14) 0.0319(12) 0.5504(12)
C15 C 0.7492(15) 0.2375(14) 0.7519(16)
H12 H 0.7631 0.2592 0.8263
H13 H 0.8254 0.2450 0.7479
H14 H 0.7191 0.2829 0.7218
C16 C 0.6572(15) 0.1230(14) 0.6904(14)
H32 H 0.0558888 0.17337 0.544686
H28 H 0.720873 0.119032 0.895788
Eu1 Eu 0.49806(7) 0.89729(6) 0.56945(6)
Mo1 Mo 0.14214(11) 0.71242(10) 0.46809(11)
Mo2 Mo 0.10426(12) 0.47870(11) 0.31954(11)
Mo4 Mo 0.38727(13) 0.64102(11) 0.88939(12)
Mo5 Mo 0.35948(12) 0.40858(11) 0.74064(11)
Mo6 Mo 0.46854(13) 0.26825(12) 0.85139(12)
Al1_2 Al 0.0000 0.5000 0.5000
Al2_2 Al 0.5000 0.5000 1.0000
Na1 Na 0.5468(7) 0.9426(6) 0.9067(6)
O1 O 0.6531(10) 0.9291(9) 0.5119(9)
O3 O 0.4086(10) 0.9088(9) 0.4063(9)
O4 O 0.3517(10) 0.9436(9) 0.2672(9)
O5 O 0.2912(10) 0.7603(9) 0.4866(9)
O6 O 0.1486(9) 0.5629(8) 0.4946(8)
O7 O 0.0651(10) 0.5980(8) 0.3308(8)
O9 O 0.1789(9) 0.7638(9) 0.6175(8)
O10 O 0.0875(9) 0.7973(9) 0.4317(9)
O12 O 0.1075(10) 0.3624(9) 0.3579(9)
O13 O 0.2531(10) 0.5378(9) 0.3401(9)
O14 O 0.0228(11) 0.4118(9) 0.1857(9)
O16 O 0.0167(10) 0.1878(9) 0.4014(9)
O17 O 0.4372(9) 0.8490(9) 0.7064(9)
O18 O 0.6436(12) 0.8439(11) 0.6759(11)
O19 O 0.4707(12) 0.7242(11) 0.4557(13)
O21 O 0.3497(9) 0.4772(9) 0.8960(9)
O22 O 0.4296(10) 0.5628(10) 0.7891(9)
O23 O 0.2377(11) 0.6004(10) 0.8084(10)
O25 O 0.4594(13) 0.7654(10) 0.8952(10)
O26 O 0.5301(9) 0.4447(9) 0.8842(9)
O27 O 0.3301(10) 0.2862(9) 0.7731(9)
O28 O 0.2115(10) 0.3801(9) 0.6633(9)
O29 O 0.4222(12) 0.3836(10) 0.6541(9)
O30 O 0.3992(12) 0.1495(10) 0.8573(9)
O31 O 0.5217(13) 0.2425(11) 0.7581(11)
N1 N 0.9017(11) 0.8673(10) 0.4231(10)
C1 C 0.9286(14) 0.8979(13) 0.3502(12)
H1 H 0.9832 0.8795 0.3273
C2 C 0.8739(14) 0.9574(13) 0.3096(14)
H2 H 0.8914 0.9806 0.2584
C3 C 0.7954(15) 0.9825(12) 0.3428(13)
C4 C 0.7705(15) 0.9464(12) 0.4171(13)
C5 C 0.8217(14) 0.8876(13) 0.4557(13)
H4 H 0.8020 0.8612 0.5045
C6 C 0.6759(14) 0.9681(12) 0.4496(12)
C7 C 0.2508(15) 0.7625(14) 0.2481(16)
H5 H 0.2369 0.7408 0.1737
H6 H 0.1746 0.7550 0.2521
H7 H 0.2809 0.7171 0.2782
C8 C 0.3428(15) 0.8770(14) 0.3096(14)
O32 O 0.3734(11) 0.9724(10) 0.9040(10)
O33 O 0.7025(13) 0.8907(12) 0.8925(13)
Mo9 Mo 0.04148(11) 0.73566(10) 0.64918(10)
O38 O 0.0233(9) 0.3822(8) 0.5209(8)
O41 O 0.0577(9) 0.5834(8) 0.6468(9)
O45 O 0.1226(10) 0.8079(9) 0.7816(10)
O48 O 0.4481(10) 0.3588(9) 0.9930(9)
O52 O 0.6199(11) 0.3219(10) 0.9764(9)
O70 O 0.3693(9) 0.9788(9) 0.5899(9)
H17 H 0.944111 0.82663 0.455314
O62 O 0.3344(14) 0.8790(11) 0.0704(11)
H28_2 H 0.279127 0.880968 0.104212
H29 H 0.28598 0.833059 0.993493
H10 H 0.2417 0.9763 0.6841
H22_2 H 0.38913 0.849444 0.104057
loop_
_geom_bond_atom_site_label_1
_geom_bond_atom_site_label_2
_geom_bond_site_symmetry_1
_geom_bond_site_symmetry_2
Na4 O77 1_555 1_555
Eu5 O2 1_555 1_555
Eu5 O72 1_555 1_555
O34 H22 1_555 1_555
Al2 O20 1_555 1_555
O20 Mo12 1_555 1_555
Mo11 O49 1_555 1_555
Mo12 O24 1_555 1_555
Na4 O47 1_555 1_555
O47 Eu5 1_555 1_555
O49 Al2 1_555 1_555
O50 Mo10 1_555 1_555
O51 Mo10 1_555 1_555
O53 Mo10 1_555 1_555
O54 Al2 1_555 1_555
O55 Mo11 1_555 1_555
O56 Mo11 1_555 1_555
O57 Mo11 1_555 1_555
O58 Mo12 1_555 1_555
O59 Mo12 1_555 1_555
O61 Na4 1_555 1_555
Mo10 O49 1_555 1_555
Mo11 O50 1_555 1_555
Mo11 O54 1_555 1_555
Mo12 O54 1_555 1_555
Mo12 O55 1_555 1_555
Na4 O53 1_555 1_555
Mo3 O11 1_555 1_555
O15 Mo3 1_555 1_555
Mo7 O35 1_555 1_555
Mo8 O36 1_555 1_555
O35 Eu5 1_555 1_555
O36 Al1 1_555 1_555
O37 Mo7 1_555 1_555
O39 Mo3 1_555 1_555
O40 Mo7 1_555 1_555
O42 Mo8 1_555 1_555
O43 Mo8 1_555 1_555
O44 Mo8 1_555 1_555
Eu5 O63 1_555 1_555
O63 C14 1_555 1_555
O74 C16 1_555 1_555
O67 Eu5 1_555 1_555
O68 Eu5 1_555 1_555
N2 C9 1_555 1_555
C9 H8 1_555 1_555
C10 C9 1_555 1_555
H9 C10 1_555 1_555
C11 C10 1_555 1_555
C12 C11 1_555 1_555
C13 N2 1_555 1_555
H11 C13 1_555 1_555
C14 C12 1_555 1_555
C15 H12 1_555 1_555
H13 C15 1_555 1_555
H14 C15 1_555 1_555
C16 O72 1_555 1_555
Al1 O8 1_555 1_555
Al1 O11 1_555 1_555
Mo7 O36 1_555 1_555
Mo7 O39 1_555 1_555
Mo8 O37 1_555 1_555
C12 C13 1_555 1_555
C15 C16 1_555 1_555
N2 H32 1_555 1_555
O34 H28 1_555 1_555
Eu1 O1 1_555 1_555
Mo1 O5 1_555 1_555
Mo2 O6 1_555 1_555
Mo5 O21 1_555 1_555
Mo6 O26 1_555 1_555
Al1_2 O6 1_555 1_555
Na1 O17 1_555 1_555
O1 C6 1_555 1_555
O3 Eu1 1_555 1_555
O4 C8 1_555 1_555
O5 Eu1 1_555 1_555
O6 Mo1 1_555 1_555
O7 Mo1 1_555 1_555
O9 Mo1 1_555 1_555
O10 Mo1 1_555 1_555
O12 Mo2 1_555 1_555
O13 Mo2 1_555 1_555
O14 Mo2 1_555 1_555
O17 Eu1 1_555 1_555
O18 Eu1 1_555 1_555
O19 Eu1 1_555 1_555
O21 Mo4 1_555 1_555
O22 Mo4 1_555 1_555
O23 Mo4 1_555 1_555
O25 Mo4 1_555 1_555
O26 Mo5 1_555 1_555
O27 Mo5 1_555 1_555
O28 Mo5 1_555 1_555
O29 Mo5 1_555 1_555
O30 Mo6 1_555 1_555
O31 Mo6 1_555 1_555
N1 C1 1_555 1_555
C1 H1 1_555 1_555
C2 C1 1_555 1_555
H2 C2 1_555 1_555
C3 C2 1_555 1_555
C4 C3 1_555 1_555
C5 N1 1_555 1_555
H4 C5 1_555 1_555
C6 C4 1_555 1_555
C7 H5 1_555 1_555
H6 C7 1_555 1_555
H7 C7 1_555 1_555
C8 O3 1_555 1_555
O32 Na1 1_555 1_555
O33 Na1 1_555 1_555
O41 Al1_2 1_555 1_555
O45 Mo9 1_555 1_555
O48 Mo6 1_555 1_555
O52 Mo6 1_555 1_555
O70 Eu1 1_555 1_555
Mo2 O7 1_555 1_555
Mo5 O22 1_555 1_555
Mo6 O27 1_555 1_555
Al1_2 O38 1_555 1_555
Al2_2 O21 1_555 1_555
Al2_2 O26 1_555 1_555
Al2_2 O48 1_555 1_555
Na1 O25 1_555 1_555
O9 Mo9 1_555 1_555
C4 C5 1_555 1_555
C7 C8 1_555 1_555
Mo9 O41 1_555 1_555
N1 H17 1_555 1_555
O62 H28_2 1_555 1_555
O62 H22_2 1_555 1_555

#END
