
###############################################################################
#
# This file contains modified crystal structure data generated from the
# MOF subset of the Cambridge Structural Database (CSD) v543 
# hosted by the Cambridge Crystallographic Data Centre (CCDC).
#
# This work is licensed under the Creative Commons
# Attribution-NonCommercial-ShareAlike 4.0 International License.
# To view a copy of this license, visit
# http://creativecommons.org/licenses/by-nc-sa/4.0/
# or send a letter to
# Creative Commons, PO Box 1866, Mountain View, CA 94042, USA.
#
# CIF created using the CSD Python API on 29 September 2022
# The structure has been converted into the P1 space group
# The structure has a 3D framework
# The original CSD entry ZALGOL is in the triclinic crystal system
# The framework has been calculated to contain at least 10.0% void space
# The void calculation uses a probe of radius 1.32A, grid spacing 0.4
# The framework is charged, counterions have been retained in the structure
# H atom positions have been added when not included in the experimental data
# Generated hydrogen atom positions removed from atoms on special positions
#
###############################################################################

data_ZALGOL
_chemical_formula_moiety         '(C16 H48 Al4 Mo12 N2 Na2 O66 Tb2 1+)n'
_symmetry_cell_setting           triclinic
_symmetry_space_group_name_H-M   'P 1'
_symmetry_Int_Tables_number      1
_space_group_name_Hall           'P 1'
loop_
_symmetry_equiv_pos_site_id
_symmetry_equiv_pos_as_xyz
1 x,y,z
_cell_length_a                   12.980(3)
_cell_length_b                   14.381(3)
_cell_length_c                   14.506(3)
_cell_angle_alpha                104.50(2)
_cell_angle_beta                 108.88(2)
_cell_angle_gamma                108.14(2)
_cell_volume                     2241.44
loop_
_atom_site_label
_atom_site_type_symbol
_atom_site_fract_x
_atom_site_fract_y
_atom_site_fract_z
Mo1 Mo 0.10296(16) 0.47927(15) 0.31903(14)
Al2 Al 0.0000 0.5000 0.5000
O1 O 0.2505(14) 0.5394(12) 0.3374(12)
O4 O 0.0584(12) 0.5830(11) 0.6454(11)
O6 O 0.0191(14) 0.1892(12) 0.4038(12)
O9 O 0.0249(13) 0.3835(11) 0.5221(11)
O15 O 0.0202(16) 0.4130(14) 0.1862(14)
O26 O 0.1087(14) 0.3634(13) 0.3600(12)
Mo8 Mo 0.14029(16) 0.71234(15) 0.46548(14)
Mo9 Mo 0.04095(16) 0.73488(15) 0.64766(14)
O36 O 0.2878(14) 0.7601(12) 0.4819(12)
O37 O 0.0850(14) 0.7972(12) 0.4280(12)
O39 O 0.1217(15) 0.8051(13) 0.7807(13)
O42 O 0.0630(14) 0.6000(12) 0.3305(12)
O43 O 0.1471(13) 0.5633(11) 0.4915(11)
O44 O 0.1766(14) 0.7615(12) 0.6131(12)
Tb5 Tb 0.49514(9) 0.89567(9) 0.56592(8)
Tb1 Tb 0.50486(9) 0.10433(9) 0.43408(8)
Mo2 Mo 0.85971(16) 0.28766(15) 0.53452(14)
Mo3 Mo 0.95905(16) 0.26512(15) 0.35234(14)
Mo4 Mo 0.63921(17) 0.59295(17) 0.25808(15)
Mo5 Mo 0.6075(2) 0.35866(19) 0.1145(2)
Mo6 Mo 0.5347(2) 0.7329(2) 0.1437(2)
Al1 Al 0.5000 0.5000 0.0000
Al2_2 Al 1.0000 0.5000 0.5000
O2 O 0.7122(14) 0.2399(12) 0.5181(12)
O3 O 0.9150(14) 0.2028(12) 0.5720(12)
O5 O 0.8783(15) 0.1949(13) 0.2193(13)
O7 O 0.6722(15) 0.7138(13) 0.2255(13)
O8 O 0.7851(15) 0.6196(13) 0.3377(13)
O10 O 0.4715(15) 0.5597(13) 0.1153(13)
O11 O 0.9370(14) 0.4000(12) 0.6695(12)
O12 O 0.8529(13) 0.4367(11) 0.5085(11)
O13 O 0.8234(14) 0.2385(12) 0.3869(12)
O14 O 0.6479(13) 0.5199(12) 0.1050(12)
O16 O 0.3500(13) 0.0733(12) 0.4898(12)
O19 O 0.3617(18) 0.1566(16) 0.3312(16)
O21 O 0.577(2) 0.6193(18) 0.3430(18)
O22 O 0.5321(18) 0.2743(16) 0.5488(16)
O23 O 0.5656(17) 0.4361(15) 0.2102(15)
O24 O 0.5651(15) 0.1533(13) 0.2988(13)
C1 C 0.1799(19) 0.1108(17) 0.5447(17)
H1 H 0.1980 0.1353 0.4958
C3 C 0.234(2) 0.0540(17) 0.5838(17)
O27 O 0.756(2) 0.3967(19) 0.1987(19)
C5 C 0.3248(19) 0.0318(17) 0.5514(17)
N1 N 0.0999(16) 0.1323(14) 0.5756(14)
H5 H 0.0644 0.1668 0.5479
C6 C 0.125(2) 0.0403(18) 0.6896(18)
H6 H 0.1040 0.0141 0.7366
O28 O 0.535(2) 0.237(2) 0.108(2)
C7 C 0.073(2) 0.1007(17) 0.6500(17)
H7 H 0.0215 0.1199 0.6735
C8 C 0.207(2) 0.0192(18) 0.6586(18)
Na1 Na 0.4550(13) 0.0573(10) 0.0938(11)
O29 O 0.384(2) 0.6799(18) 0.0179(18)
O30 O 0.481(2) 0.761(2) 0.240(2)
O31 O 0.628(2) 0.0278(19) 0.0990(19)
O32 O 0.302(3) 0.111(2) 0.114(2)
O34 O 0.603(2) 0.847(2) 0.139(2)
Mo7 Mo 0.89704(16) 0.52073(15) 0.68097(14)
O35 O 0.7495(14) 0.4606(12) 0.6626(12)
O38 O 0.9416(12) 0.4170(11) 0.3546(11)
O40 O 0.9809(14) 0.8108(12) 0.5962(12)
O41 O 0.9751(13) 0.6165(11) 0.4779(11)
O45 O 0.9798(16) 0.5870(14) 0.8138(14)
O46 O 0.8913(14) 0.6366(13) 0.6400(12)
O51 O 0.5543(16) 0.6388(14) 0.0025(14)
O71 O 0.5921(14) 0.0908(12) 0.5937(12)
O73 O 0.6319(13) 0.0234(12) 0.4104(12)
Al1_2 Al 0.5000 0.5000 1.0000
O20 O 0.4457(16) 0.3612(14) 0.9975(14)
Mo10 Mo 0.36079(17) 0.40705(17) 0.74192(15)
Mo11 Mo 0.3925(2) 0.64134(19) 0.8855(2)
Mo12 Mo 0.4653(2) 0.2671(2) 0.8563(2)
O47 O 0.3278(15) 0.2862(13) 0.7745(13)
O48 O 0.2149(15) 0.3804(13) 0.6623(13)
O49 O 0.5285(15) 0.4403(13) 0.8847(13)
O50 O 0.3521(13) 0.4801(12) 0.8950(12)
O52 O 0.423(2) 0.3807(18) 0.6570(18)
O53 O 0.4344(17) 0.5639(15) 0.7898(15)
O54 O 0.244(2) 0.6033(19) 0.8013(19)
O55 O 0.465(2) 0.763(2) 0.892(2)
O56 O 0.616(2) 0.3201(18) 0.9821(18)
O57 O 0.519(2) 0.239(2) 0.760(2)
O58 O 0.397(2) 0.153(2) 0.861(2)
O60 O 0.6443(16) 0.0501(14) 0.7301(14)
C10 C 0.752(3) 0.234(2) 0.752(2)
H10 H 0.8243 0.2394 0.7452
H11 H 0.7226 0.2791 0.7234
H12 H 0.7681 0.2556 0.8254
C12 C 0.657(2) 0.1194(19) 0.6916(19)
H16 H 0.7545 0.0186 0.3125
O68 O 0.665(3) 0.119(2) 0.928(2)
Na3 Na 0.5450(13) 0.9427(10) 0.9062(11)
O17 O 0.3557(16) 0.9499(14) 0.2699(14)
O18 O 0.4079(14) 0.9092(12) 0.4063(12)
O25 O 0.3681(13) 0.9766(12) 0.5896(12)
C2 C 0.248(3) 0.766(2) 0.248(2)
H2 H 0.1757 0.7606 0.2548
H3 H 0.2774 0.7209 0.2766
H4 H 0.2319 0.7444 0.1746
C4 C 0.343(2) 0.8806(19) 0.3084(19)
H8 H 0.2455 0.9814 0.6875
O33 O 0.335(3) 0.881(2) 0.072(2)
O59 O 0.6500(13) 0.9267(12) 0.5102(12)
O62 O 0.6383(18) 0.8434(16) 0.6688(16)
O63 O 0.4679(18) 0.7257(16) 0.4512(16)
O64 O 0.4349(15) 0.8467(13) 0.7012(13)
C9 C 0.8201(19) 0.8892(17) 0.4553(17)
H9 H 0.8020 0.8647 0.5042
C11 C 0.766(2) 0.9460(17) 0.4162(17)
C13 C 0.6752(19) 0.9682(17) 0.4486(17)
N2 N 0.9001(16) 0.8677(14) 0.4244(14)
H13 H 0.9356 0.8332 0.4521
C14 C 0.875(2) 0.9597(18) 0.3104(18)
H14 H 0.8960 0.9859 0.2634
C15 C 0.927(2) 0.8993(17) 0.3500(17)
H15 H 0.9785 0.8801 0.3265
C16 C 0.793(2) 0.9808(18) 0.3414(18)
O66 O 0.372(2) 0.9722(19) 0.9010(19)
O67 O 0.698(3) 0.889(2) 0.886(2)
H24 H 0.287394 0.835212 0.995397
H24_2 H 0.712606 0.164788 0.00460296
loop_
_geom_bond_atom_site_label_1
_geom_bond_atom_site_label_2
_geom_bond_site_symmetry_1
_geom_bond_site_symmetry_2
Mo1 O1 1_555 1_555
Al2 O4 1_555 1_555
O15 Mo1 1_555 1_555
O26 Mo1 1_555 1_555
Mo8 O36 1_555 1_555
Mo9 O4 1_555 1_555
O36 Tb5 1_555 1_555
O37 Mo8 1_555 1_555
O39 Mo9 1_555 1_555
O42 Mo1 1_555 1_555
O43 Mo1 1_555 1_555
O44 Mo8 1_555 1_555
Al2 O9 1_555 1_555
Al2 O43 1_555 1_555
Mo8 O42 1_555 1_555
Mo8 O43 1_555 1_555
Mo9 O44 1_555 1_555
Tb1 O2 1_555 1_555
Mo2 O2 1_555 1_555
Mo3 O5 1_555 1_555
Mo4 O7 1_555 1_555
Mo5 O14 1_555 1_555
Mo6 O7 1_555 1_555
Al1 O10 1_555 1_555
O3 Mo2 1_555 1_555
O8 Mo4 1_555 1_555
O10 Mo4 1_555 1_555
O11 Mo2 1_555 1_555
O12 Mo2 1_555 1_555
O13 Mo2 1_555 1_555
O14 Mo4 1_555 1_555
O16 Tb1 1_555 1_555
O19 Tb1 1_555 1_555
O21 Mo4 1_555 1_555
O22 Tb1 1_555 1_555
O23 Mo4 1_555 1_555
O24 Tb1 1_555 1_555
C1 H1 1_555 1_555
C3 C1 1_555 1_555
O27 Mo5 1_555 1_555
C5 O16 1_555 1_555
N1 C1 1_555 1_555
H5 N1 1_555 1_555
C6 H6 1_555 1_555
O28 Mo5 1_555 1_555
C7 N1 1_555 1_555
H7 C7 1_555 1_555
C8 C3 1_555 1_555
Na1 O24 1_555 1_555
O29 Mo6 1_555 1_555
O30 Mo6 1_555 1_555
O31 Na1 1_555 1_555
O32 Na1 1_555 1_555
O34 Mo6 1_555 1_555
Mo7 O11 1_555 1_555
O35 Mo7 1_555 1_555
O41 Al2_2 1_555 1_555
O45 Mo7 1_555 1_555
O46 Mo7 1_555 1_555
O51 Mo6 1_555 1_555
O71 Tb1 1_555 1_555
O73 Tb1 1_555 1_555
Mo3 O13 1_555 1_555
Mo3 O38 1_555 1_555
Mo5 O23 1_555 1_555
Mo6 O10 1_555 1_555
Al1 O14 1_555 1_555
Al1 O51 1_555 1_555
Al2_2 O12 1_555 1_555
Al2_2 O38 1_555 1_555
O12 Mo7 1_555 1_555
C3 C5 1_555 1_555
C6 C7 1_555 1_555
C6 C8 1_555 1_555
O28 Na1 1_555 1_555
Mo10 O47 1_555 1_555
Mo12 O20 1_555 1_555
O47 Mo12 1_555 1_555
O48 Mo10 1_555 1_555
O49 Al1_2 1_555 1_555
O50 Al1_2 1_555 1_555
O52 Mo10 1_555 1_555
O53 Mo10 1_555 1_555
O54 Mo11 1_555 1_555
O55 Mo11 1_555 1_555
O57 Mo12 1_555 1_555
O58 Mo12 1_555 1_555
C10 H10 1_555 1_555
H11 C10 1_555 1_555
H12 C10 1_555 1_555
C12 O60 1_555 1_555
Na3 O55 1_555 1_555
Al1_2 O20 1_555 1_555
Mo10 O49 1_555 1_555
Mo10 O50 1_555 1_555
Mo11 O50 1_555 1_555
Mo11 O53 1_555 1_555
Mo12 O49 1_555 1_555
Mo12 O56 1_555 1_555
O71 C12 1_555 1_555
C10 C12 1_555 1_555
C2 H2 1_555 1_555
H3 C2 1_555 1_555
H4 C2 1_555 1_555
C4 O17 1_555 1_555
Tb5 O18 1_555 1_555
O18 C4 1_555 1_555
O25 Tb5 1_555 1_555
C2 C4 1_555 1_555
Tb5 O59 1_555 1_555
O59 C13 1_555 1_555
O62 Tb5 1_555 1_555
O63 Tb5 1_555 1_555
O64 Tb5 1_555 1_555
C9 H9 1_555 1_555
C11 C9 1_555 1_555
C13 C11 1_555 1_555
N2 C9 1_555 1_555
H13 N2 1_555 1_555
C14 H14 1_555 1_555
C15 N2 1_555 1_555
H15 C15 1_555 1_555
C16 C11 1_555 1_555
O67 Na3 1_555 1_555
O64 Na3 1_555 1_555
C14 C15 1_555 1_555
C14 C16 1_555 1_555
Na3 O66 1_555 1_555

#END
