
###############################################################################
#
# This file contains modified crystal structure data generated from the
# MOF subset of the Cambridge Structural Database (CSD) v543 
# hosted by the Cambridge Crystallographic Data Centre (CCDC).
#
# This work is licensed under the Creative Commons
# Attribution-NonCommercial-ShareAlike 4.0 International License.
# To view a copy of this license, visit
# http://creativecommons.org/licenses/by-nc-sa/4.0/
# or send a letter to
# Creative Commons, PO Box 1866, Mountain View, CA 94042, USA.
#
# CIF created using the CSD Python API on 29 September 2022
# The structure has been converted into the P1 space group
# The structure has a 3D framework
# The original CSD entry ZALQOW is in the triclinic crystal system
# The framework has been calculated to contain at least 10.0% void space
# The void calculation uses a probe of radius 1.32A, grid spacing 0.4
#
###############################################################################

data_ZALQOW
_chemical_formula_moiety         '(C68 H44 O19 Sr3)n'
_symmetry_cell_setting           triclinic
_symmetry_space_group_name_H-M   'P 1'
_symmetry_Int_Tables_number      1
_space_group_name_Hall           'P 1'
loop_
_symmetry_equiv_pos_site_id
_symmetry_equiv_pos_as_xyz
1 x,y,z
_cell_length_a                   9.240(3)
_cell_length_b                   11.330(4)
_cell_length_c                   19.414(7)
_cell_angle_alpha                80.147(6)
_cell_angle_beta                 81.815(7)
_cell_angle_gamma                85.494(7)
_cell_volume                     1979
loop_
_atom_site_label
_atom_site_type_symbol
_atom_site_fract_x
_atom_site_fract_y
_atom_site_fract_z
H12 H 0.032707 0.242259 0.827861
O19 O 0.06290(16) 0.06286(14) 0.14956(8)
H25 H 0.043(3) 0.098(3) 0.1846(17)
H26 H 0.144(4) 0.074(3) 0.1332(17)
Sr8 Sr 0.15862(2) 0.96611(2) 0.90833(2)
O26 O 0.03511(13) 0.87823(11) 0.04916(6)
Sr5 Sr 0.500000 0.000000 0.000000
Sr5_2 Sr 0.500000 0.000000 1.000000
Sr11 Sr 0.84138(2) 0.03389(2) 0.09167(2)
O22 O 0.22187(13) 0.06510(11) 0.77394(6)
O30 O 0.31693(14) 0.14150(11) 0.93065(7)
Sr5_3 Sr 0.500000 1.000000 0.000000
O28 O 0.27754(13) 0.88297(11) 0.02413(6)
O32 O 0.56685(14) 0.08292(13) 0.11767(7)
O34 O 0.34388(14) 0.12348(13) 0.08756(7)
O1 O 0.77813(13) 0.93490(11) 0.22606(6)
O2 O 0.96489(13) 0.12177(11) 0.95084(6)
O3 O 0.72246(13) 0.11703(11) 0.97587(6)
O5 O 0.76027(14) 0.07521(11) 0.32051(7)
H1 H 0.782266 0.034447 0.287841
O6 O 0.66572(15) 0.77992(12) 0.20373(6)
O7 O 0.43315(14) 0.91708(13) 0.88233(7)
O8 O 0.65612(14) 0.87652(13) 0.91244(7)
C1 C 0.72064(18) 0.70771(15) 0.81898(9)
H4 H 0.784204 0.706162 0.853560
C2 C 0.83640(18) 0.15159(14) 0.93521(8)
C3 C 0.77431(18) 0.37379(14) 0.73685(8)
C4 C 0.76849(18) 0.44315(15) 0.53917(8)
C5 C 0.59333(18) 0.78304(15) 0.82027(9)
C6 C 0.75375(18) 0.44479(15) 0.66608(8)
C7 C 0.72867(18) 0.56715(15) 0.52837(8)
C8 C 0.81624(18) 0.23133(14) 0.86662(8)
C9 C 0.7261(2) 0.20327(16) 0.43041(9)
H5 H 0.665755 0.138070 0.433079
O10 O 0.9557(2) 0.1732(2) 0.26628(10)
C10 C 0.75471(18) 0.63506(15) 0.76738(9)
H6 H 0.840320 0.582839 0.767753
C11 C 0.55765(18) 0.86423(15) 0.87496(8)
C12 C 0.78312(18) 0.38512(15) 0.60765(8)
H7 H 0.813999 0.302461 0.614792
C13 C 0.66454(19) 0.63775(15) 0.71480(8)
C14 C 0.72208(19) 0.63780(15) 0.45634(8)
C15 C 0.83334(19) 0.22956(16) 0.37336(9)
C16 C 0.7072(2) 0.27333(15) 0.48400(9)
H8 H 0.633945 0.254908 0.523206
C17 C 0.71919(18) 0.83331(15) 0.24491(8)
C18 C 0.79416(18) 0.36995(15) 0.48094(8)
C19 C 0.91564(19) 0.33494(16) 0.75236(9)
H9 H 0.997989 0.355855 0.718369
C20 C 0.81029(19) 0.80003(15) 0.36476(9)
H10 H 0.872451 0.864866 0.349027
C21 C 0.71811(18) 0.76987(15) 0.31994(8)
C22 C 0.70443(18) 0.56721(15) 0.65602(8)
C23 C 0.8109(2) 0.73478(15) 0.43264(9)
H11 H 0.872478 0.756600 0.463100
C24 C 0.93634(19) 0.26586(16) 0.81727(9)
C25 C 0.65490(19) 0.34253(17) 0.78723(9)
H13 H 0.558826 0.370510 0.777976
C26 C 0.62771(19) 0.67390(16) 0.34409(9)
H14 H 0.564385 0.653273 0.314045
C27 C 0.69599(19) 0.62599(15) 0.58677(9)
H15 H 0.666923 0.709008 0.579356
C28 C 0.62918(19) 0.60830(16) 0.41139(9)
H16 H 0.567156 0.543338 0.426989
C29 C 0.67545(19) 0.27033(17) 0.85127(9)
H17 H 0.592974 0.247482 0.884745
C30 C 0.5004(2) 0.78371(19) 0.76956(10)
H18 H 0.412135 0.832720 0.770910
C31 C 0.8559(2) 0.15670(18) 0.31465(10)
C32 C 0.5364(2) 0.71297(19) 0.71694(10)
H19 H 0.473320 0.715635 0.682029
C33 C 0.9027(2) 0.3952(2) 0.42362(10)
H20 H 0.963271 0.460333 0.420742
C34 C 0.9219(2) 0.3245(2) 0.37053(11)
H21 H 0.996586 0.341418 0.331808
H45 H 0.263(3) 0.194(2) 0.9506(13)
H46 H 0.328(3) 0.173(2) 0.8884(15)
Sr5_4 Sr 0.500000 1.000000 1.000000
O4 O 0.68307(14) 0.85850(11) 0.06935(7)
H22 H 0.737(3) 0.806(2) 0.0494(13)
H23 H 0.672(3) 0.827(2) 0.1116(15)
O15 O 0.23973(14) 0.92479(11) 0.67949(7)
H24 H 0.217734 0.965553 0.712159
O16 O 0.33428(15) 0.22008(12) 0.79627(6)
C35 C 0.27936(18) 0.29229(15) 0.18102(9)
H27 H 0.215796 0.293838 0.146440
C36 C 0.16360(18) 0.84841(14) 0.06479(8)
C37 C 0.22569(18) 0.62621(14) 0.26315(8)
C38 C 0.23151(18) 0.55685(15) 0.46083(8)
C39 C 0.40667(18) 0.21696(15) 0.17973(9)
C40 C 0.24625(18) 0.55521(15) 0.33392(8)
C41 C 0.27133(18) 0.43285(15) 0.47163(8)
C42 C 0.18376(18) 0.76867(14) 0.13338(8)
C43 C 0.2739(2) 0.79673(16) 0.56959(9)
H28 H 0.334245 0.861930 0.566921
O20 O 0.0443(2) 0.8268(2) 0.73372(10)
C44 C 0.24529(18) 0.36494(15) 0.23262(9)
H29 H 0.159680 0.417161 0.232247
C45 C 0.44235(18) 0.13577(15) 0.12504(8)
C46 C 0.21688(18) 0.61488(15) 0.39235(8)
H30 H 0.186001 0.697539 0.385208
C47 C 0.33546(19) 0.36225(15) 0.28520(8)
C48 C 0.27792(19) 0.36220(15) 0.54366(8)
C49 C 0.16666(19) 0.77044(16) 0.62664(9)
C50 C 0.2928(2) 0.72667(15) 0.51600(9)
H31 H 0.366055 0.745092 0.476794
C51 C 0.28081(18) 0.16669(15) 0.75509(8)
C52 C 0.20584(18) 0.63005(15) 0.51906(8)
C53 C 0.08436(19) 0.66506(16) 0.24764(9)
H32 H 0.002011 0.644145 0.281631
C54 C 0.18971(19) 0.19997(15) 0.63524(9)
H33 H 0.127549 0.135134 0.650973
C55 C 0.28189(18) 0.23013(15) 0.68006(8)
C56 C 0.29557(18) 0.43279(15) 0.34398(8)
C57 C 0.1891(2) 0.26522(15) 0.56736(9)
H34 H 0.127522 0.243400 0.536900
C58 C 0.06366(19) 0.73414(16) 0.18273(9)
C59 C 0.34510(19) 0.65747(17) 0.21277(9)
H36 H 0.441174 0.629490 0.222024
C60 C 0.37229(19) 0.32610(16) 0.65591(9)
H37 H 0.435615 0.346727 0.685955
C61 C 0.30401(19) 0.37401(15) 0.41323(9)
H38 H 0.333077 0.290992 0.420644
C62 C 0.37082(19) 0.39170(16) 0.58861(9)
H39 H 0.432844 0.456662 0.573011
C63 C 0.32455(19) 0.72967(17) 0.14873(9)
H40 H 0.407026 0.752518 0.115255
C64 C 0.4996(2) 0.21629(19) 0.23044(10)
H41 H 0.587865 0.167280 0.229090
C65 C 0.1441(2) 0.84330(18) 0.68535(10)
C66 C 0.4636(2) 0.28703(19) 0.28306(10)
H42 H 0.526680 0.284365 0.317971
C67 C 0.0973(2) 0.6048(2) 0.57638(10)
H43 H 0.036729 0.539667 0.579258
C68 C 0.0781(2) 0.6755(2) 0.62947(11)
H44 H 0.003414 0.658582 0.668192
O9 O 0.93710(16) 0.93714(14) 0.85044(8)
H2 H 0.957(3) 0.902(3) 0.8154(17)
H3 H 0.856(4) 0.926(3) 0.8668(17)
H35 H 0.967293 0.757741 0.172139
loop_
_geom_bond_atom_site_label_1
_geom_bond_atom_site_label_2
_geom_bond_site_symmetry_1
_geom_bond_site_symmetry_2
H25 O19 1_555 1_555
H26 O19 1_555 1_555
Sr5_2 O30 1_555 1_555
O32 Sr5 1_555 1_555
O34 Sr5 1_555 1_555
Sr5_3 O28 1_555 1_555
Sr11 O32 1_555 1_555
Sr5_2 O3 1_555 1_555
Sr8 O7 1_555 1_555
O1 C17 1_555 1_555
O2 C2 1_555 1_555
O3 C2 1_555 1_555
O5 H1 1_555 1_555
O6 C17 1_555 1_555
O7 C11 1_555 1_555
O8 C11 1_555 1_555
C1 H4 1_555 1_555
C2 C8 1_555 1_555
C3 C6 1_555 1_555
C4 C7 1_555 1_555
C5 C1 1_555 1_555
C6 C12 1_555 1_555
C7 C14 1_555 1_555
C8 C24 1_555 1_555
C9 H5 1_555 1_555
O10 C31 1_555 1_555
C10 C1 1_555 1_555
H6 C10 1_555 1_555
C11 C5 1_555 1_555
C12 C4 1_555 1_555
H7 C12 1_555 1_555
C13 C10 1_555 1_555
C14 C23 1_555 1_555
C15 C9 1_555 1_555
C16 C9 1_555 1_555
H8 C16 1_555 1_555
C17 C21 1_555 1_555
C18 C4 1_555 1_555
C19 C3 1_555 1_555
H9 C19 1_555 1_555
C20 H10 1_555 1_555
C21 C20 1_555 1_555
C22 C6 1_555 1_555
C23 C20 1_555 1_555
H11 C23 1_555 1_555
C24 C19 1_555 1_555
C25 C3 1_555 1_555
H13 C25 1_555 1_555
C26 C21 1_555 1_555
H14 C26 1_555 1_555
C27 C7 1_555 1_555
H15 C27 1_555 1_555
C28 C14 1_555 1_555
H16 C28 1_555 1_555
C29 C8 1_555 1_555
H17 C29 1_555 1_555
C30 C5 1_555 1_555
H18 C30 1_555 1_555
C31 O5 1_555 1_555
C32 C13 1_555 1_555
H19 C32 1_555 1_555
C33 C18 1_555 1_555
H20 C33 1_555 1_555
C34 C15 1_555 1_555
H21 C34 1_555 1_555
H45 O30 1_555 1_555
H46 O30 1_555 1_555
Sr5_4 O7 1_555 1_555
O8 Sr5_4 1_555 1_555
C13 C22 1_555 1_555
C15 C31 1_555 1_555
C16 C18 1_555 1_555
C22 C27 1_555 1_555
C25 C29 1_555 1_555
C26 C28 1_555 1_555
C30 C32 1_555 1_555
C33 C34 1_555 1_555
O4 Sr5_3 1_555 1_555
H22 O4 1_555 1_555
H23 O4 1_555 1_555
O22 C51 1_555 1_555
O26 C36 1_555 1_555
O15 H24 1_555 1_555
O16 C51 1_555 1_555
O32 C45 1_555 1_555
O34 C45 1_555 1_555
C35 H27 1_555 1_555
C36 O28 1_555 1_555
C37 C40 1_555 1_555
C38 C41 1_555 1_555
C39 C35 1_555 1_555
C40 C46 1_555 1_555
C41 C48 1_555 1_555
C42 C36 1_555 1_555
C43 H28 1_555 1_555
O20 C65 1_555 1_555
C44 C35 1_555 1_555
H29 C44 1_555 1_555
C45 C39 1_555 1_555
C46 C38 1_555 1_555
H30 C46 1_555 1_555
C47 C44 1_555 1_555
C48 C57 1_555 1_555
C49 C43 1_555 1_555
C50 C43 1_555 1_555
H31 C50 1_555 1_555
C51 C55 1_555 1_555
C52 C38 1_555 1_555
C53 C37 1_555 1_555
H32 C53 1_555 1_555
C54 H33 1_555 1_555
C55 C54 1_555 1_555
C56 C40 1_555 1_555
C57 C54 1_555 1_555
H34 C57 1_555 1_555
C58 C42 1_555 1_555
C59 C37 1_555 1_555
H36 C59 1_555 1_555
C60 C55 1_555 1_555
H37 C60 1_555 1_555
C61 C41 1_555 1_555
H38 C61 1_555 1_555
C62 C48 1_555 1_555
H39 C62 1_555 1_555
C63 C42 1_555 1_555
H40 C63 1_555 1_555
C64 C39 1_555 1_555
H41 C64 1_555 1_555
C65 O15 1_555 1_555
C66 C47 1_555 1_555
H42 C66 1_555 1_555
C67 C52 1_555 1_555
H43 C67 1_555 1_555
C68 C49 1_555 1_555
H44 C68 1_555 1_555
C47 C56 1_555 1_555
C49 C65 1_555 1_555
C50 C52 1_555 1_555
C53 C58 1_555 1_555
C56 C61 1_555 1_555
C59 C63 1_555 1_555
C60 C62 1_555 1_555
C64 C66 1_555 1_555
C67 C68 1_555 1_555
H2 O9 1_555 1_555
H3 O9 1_555 1_555

#END
