
###############################################################################
#
# This file contains modified crystal structure data generated from the
# MOF subset of the Cambridge Structural Database (CSD) v543 
# hosted by the Cambridge Crystallographic Data Centre (CCDC).
#
# This work is licensed under the Creative Commons
# Attribution-NonCommercial-ShareAlike 4.0 International License.
# To view a copy of this license, visit
# http://creativecommons.org/licenses/by-nc-sa/4.0/
# or send a letter to
# Creative Commons, PO Box 1866, Mountain View, CA 94042, USA.
#
# CIF created using the CSD Python API on 29 September 2022
# The structure has been converted into the P1 space group
# The structure has a 3D framework
# The original CSD entry ZAMQOX is in the triclinic crystal system
# The framework has been calculated to contain at least 10.0% void space
# The void calculation uses a probe of radius 1.32A, grid spacing 0.4
# H atom positions have been added when not included in the experimental data
#
###############################################################################

data_ZAMQOX
_chemical_formula_moiety         '(C72 H58 N2 O29 Zn5)n'
_symmetry_cell_setting           triclinic
_symmetry_space_group_name_H-M   'P 1'
_symmetry_Int_Tables_number      1
_space_group_name_Hall           'P 1'
loop_
_symmetry_equiv_pos_site_id
_symmetry_equiv_pos_as_xyz
1 x,y,z
_cell_length_a                   12.1185(10)
_cell_length_b                   13.4888(11)
_cell_length_c                   13.8929(12)
_cell_angle_alpha                92.6710(10)
_cell_angle_beta                 107.6110(10)
_cell_angle_gamma                93.6710(10)
_cell_volume                     2154.91
loop_
_atom_site_label
_atom_site_type_symbol
_atom_site_fract_x
_atom_site_fract_y
_atom_site_fract_z
H2 H 0.0547(15) 0.1416(17) 0.620(2)
Zn12 Zn 0.0000 -0.0000 0.5000
Zn12_2 Zn 0.0000 1.0000 0.5000
Zn3 Zn 0.15828(2) 0.18315(2) 0.42846(2)
Zn4 Zn 0.87961(2) 0.19542(2) 0.61903(2)
O1 O 0.01415(14) 0.09941(12) 0.39904(12)
O2 O 0.99362(14) 0.10369(12) 0.61122(12)
O3 O 0.29791(14) 0.12693(13) 0.51090(13)
O4 O 0.16028(15) 0.22759(13) 0.29609(12)
O5 O 0.19517(14) 0.01700(13) 0.57376(12)
O6 O 0.03089(15) 0.11079(12) 0.19281(12)
O7 O 0.86865(15) 0.32148(13) 0.55242(13)
O8 O 0.83348(15) 0.74252(13) 0.35891(13)
O10 O 0.80752(14) 0.00079(13) 0.67686(14)
O11 O 0.84799(15) 0.68301(13) 0.50943(13)
O12 O 0.84686(15) 0.21985(13) 0.41569(14)
O15 O 0.72482(14) 0.13693(13) 0.61349(13)
C1 C 0.8623(2) 0.30440(18) 0.45903(19)
C2 C 0.0940(2) 0.19140(18) 0.21088(17)
C3 C 0.8458(2) 0.67276(18) 0.41680(18)
C5 C 0.8600(2) 0.57025(18) 0.37871(18)
C6 C 0.8709(2) 0.39383(18) 0.40040(18)
C7 C 0.8577(2) 0.48889(18) 0.43668(18)
H3 H 0.8469 0.4984 0.5013
C9 C 0.0522(2) 0.20357(18) 0.02488(18)
H4 H 0.0391 0.1330 0.0170
C10 C 0.0880(2) 0.25183(18) 0.12182(18)
C11 C 0.8913(2) 0.38034(19) 0.30720(19)
H5 H 0.9015 0.3158 0.2826
C12 C 0.1112(2) 0.35488(19) 0.13313(18)
H6 H 0.1378 0.3878 0.1989
C13 C 0.2883(2) 0.05462(18) 0.56415(17)
C15 C 0.4001(2) 0.01142(18) 0.61927(17)
C16 C 0.8789(2) 0.55603(19) 0.28498(19)
H8 H 0.8797 0.6109 0.2447
C17 C 0.0956(2) 0.40967(19) 0.04858(19)
H9 H 0.1122 0.4799 0.0566
C18 C 0.5055(2) 0.05156(18) 0.61081(17)
H10 H 0.5071 0.1079 0.5725
C19 C 0.7222(2) 0.05131(18) 0.64904(17)
C20 C 0.8964(2) 0.4618(2) 0.2503(2)
H11 H 0.9120 0.4530 0.1876
C21 C 0.6083(2) 0.00945(18) 0.65830(18)
Zn9 Zn 0.99229(2) 0.00329(2) 0.72254(2)
Zn12_3 Zn 1.0000 -0.0000 0.5000
Zn14 Zn 0.84172(2) 0.81685(2) 0.57154(2)
O36 O 0.94983(15) 0.25400(13) 0.76240(12)
O41 O 0.15201(15) 0.31699(13) 0.49057(13)
O14 O 0.00305(16) 0.11122(13) 0.83425(13)
C8 C 0.0356(2) 0.25802(18) 0.93999(18)
C14 C 0.0556(2) 0.36171(18) 0.95187(18)
H7 H 0.0420 0.3995 0.8940
O28 O 0.17625(15) 0.00638(14) 0.77162(14)
Zn1 Zn 0.00771(2) 0.99671(2) 0.27746(2)
C22 C 0.3977(2) 0.92874(19) 0.67581(19)
H12 H 0.3260 0.9005 0.6810
C23 C 0.6056(2) 0.92697(19) 0.71472(19)
H13 H 0.6753 0.8974 0.7465
C24 C 0.5011(2) 0.88807(19) 0.7245(2)
H14 H 0.5000 0.8332 0.7647
O24 O 0.05017(15) 0.74600(13) 0.23760(12)
C28 C 0.0065(2) 0.79674(18) 0.16286(18)
Zn12_4 Zn 1.0000 1.0000 0.5000
Zn16 Zn 0.12039(2) 0.80458(2) 0.38097(2)
O34 O 0.00638(14) 0.89631(12) 0.38878(12)
O39 O 0.19248(14) 0.99921(13) 0.32314(14)
H15 H 0.0424(17) 0.8645(18) 0.610(2)
H53 H 0.203437 0.98892 0.843184
H54 H 0.201491 0.957502 0.728553
H1 H 0.9576(17) 0.1355(18) 0.390(2)
H51 H 0.800089 0.0616183 0.212578
C4 C 0.9935(2) 0.20326(18) 0.83714(18)
C46 C 0.6023(2) 0.07126(19) 0.32419(19)
H26 H 0.6740 0.0995 0.3190
C47 C 0.3944(2) 0.07303(19) 0.28528(19)
H27 H 0.3247 0.1026 0.2535
C48 C 0.4989(2) 0.11193(19) 0.2755(2)
H28 H 0.5000 0.1668 0.2353
O13 O 0.82375(15) 0.99362(14) 0.22838(14)
O29 O 0.99695(16) 0.88878(13) 0.16575(13)
C32 C 0.9644(2) 0.74198(18) 0.06001(18)
C38 C 0.9444(2) 0.63829(18) 0.04813(18)
H21 H 0.9580 0.6005 0.1060
O31 O 0.98585(14) 0.90059(12) 0.60096(12)
O35 O 0.80483(14) 0.98300(13) 0.42624(12)
H52 H 0.791889 0.947638 0.166782
O18 O 0.70209(14) 0.87307(13) 0.48910(13)
O19 O 0.83972(15) 0.77241(13) 0.70391(12)
O21 O 0.96911(15) 0.88921(12) 0.80719(12)
O22 O 0.13135(15) 0.67852(13) 0.44758(13)
O23 O 0.16652(15) 0.25748(13) 0.64109(13)
O27 O 0.15314(15) 0.78015(13) 0.58431(14)
O30 O 0.27518(14) 0.86307(13) 0.38651(13)
C25 C 0.1377(2) 0.69560(18) 0.54097(19)
C26 C 0.9060(2) 0.80860(18) 0.78912(17)
C27 C 0.1542(2) 0.32724(18) 0.58320(18)
C29 C 0.1400(2) 0.42975(18) 0.62129(18)
C30 C 0.1291(2) 0.60617(18) 0.59960(18)
C31 C 0.1423(2) 0.51111(18) 0.56332(18)
H17 H 0.1531 0.5016 0.4987
C33 C 0.9478(2) 0.79643(18) 0.97512(18)
H18 H 0.9609 0.8670 0.9830
C34 C 0.9120(2) 0.74817(18) 0.87818(18)
C35 C 0.1087(2) 0.61966(19) 0.69280(19)
H19 H 0.0985 0.6842 0.7174
C36 C 0.8888(2) 0.64512(19) 0.86687(18)
H20 H 0.8622 0.6122 0.8011
C37 C 0.7117(2) 0.94538(18) 0.43585(17)
C39 C 0.5999(2) 0.98858(18) 0.38073(17)
C40 C 0.1211(2) 0.44397(19) 0.71502(19)
H22 H 0.1203 0.3891 0.7553
C41 C 0.9044(2) 0.59033(19) 0.95142(19)
H23 H 0.8878 0.5201 0.9434
C42 C 0.4945(2) 0.94844(18) 0.38919(17)
H24 H 0.4929 0.8921 0.4275
C43 C 0.2778(2) 0.94869(18) 0.35096(17)
C44 C 0.1036(2) 0.5382(2) 0.7497(2)
H25 H 0.0880 0.5470 0.8124
C45 C 0.3917(2) 0.99055(18) 0.34170(18)
H16 H 0.9453(15) 0.8584(17) 0.380(2)
H52_2 H 0.208111 0.0523621 0.833218
H51_2 H 0.199911 0.938382 0.787422
H53_2 H 0.796563 0.0110797 0.156816
H54_2 H 0.798509 0.0424983 0.271447
N2 N 0.48065(19) 0.34237(17) 0.53148(18)
C61 C 0.4862(2) 0.3927(2) 0.3403(2)
C62 C 0.3955(2) 0.3932(2) 0.4729(2)
H40 H 0.3340 0.4115 0.4974
C63 C 0.4904(2) 0.4218(2) 0.2404(2)
C64 C 0.3968(2) 0.4184(2) 0.3792(2)
H41 H 0.3359 0.4541 0.3395
C65 C 0.4983(2) 0.4837(2) 0.0498(2)
C66 C 0.5713(2) 0.3386(2) 0.4031(2)
H42 H 0.6329 0.3178 0.3799
C67 C 0.5675(2) 0.3149(2) 0.4974(2)
H43 H 0.6267 0.2788 0.5387
C68 C 0.4766(3) 0.3169(2) 0.6331(2)
H44 H 0.4079 0.3425 0.6454
H45 H 0.5468 0.3469 0.6847
H46 H 0.4726 0.2444 0.6363
C69 C 0.4057(3) 0.4972(3) 0.0848(3)
H47 H 0.3418 0.5286 0.0436
C70 C 0.4011(3) 0.4676(3) 0.1767(3)
H48 H 0.3344 0.4789 0.1968
C71 C 0.5850(3) 0.4102(4) 0.2070(3)
H49 H 0.6501 0.3810 0.2492
C72 C 0.5884(3) 0.4399(4) 0.1139(3)
H50 H 0.6553 0.4296 0.0938
N1 N 0.51935(19) 0.65763(17) 0.46852(18)
C49 C 0.5138(2) 0.6073(2) 0.6597(2)
C50 C 0.6045(2) 0.6068(2) 0.5271(2)
H29 H 0.6660 0.5885 0.5026
C51 C 0.5096(2) 0.5782(2) 0.7596(2)
C52 C 0.6032(2) 0.5816(2) 0.6208(2)
H30 H 0.6641 0.5459 0.6605
C53 C 0.5017(2) 0.5163(2) 0.9502(2)
C54 C 0.4287(2) 0.6614(2) 0.5969(2)
H31 H 0.3671 0.6822 0.6201
C55 C 0.4325(2) 0.6851(2) 0.5026(2)
H32 H 0.3733 0.7212 0.4613
C56 C 0.5234(3) 0.6831(2) 0.3669(2)
H33 H 0.5921 0.6575 0.3546
H34 H 0.4532 0.6531 0.3153
H35 H 0.5274 0.7556 0.3637
C57 C 0.5943(3) 0.5028(3) 0.9152(3)
H36 H 0.6582 0.4714 0.9564
C58 C 0.5989(3) 0.5324(3) 0.8233(3)
H37 H 0.6656 0.5211 0.8032
C59 C 0.4150(3) 0.5898(4) 0.7930(3)
H38 H 0.3499 0.6190 0.7508
C60 C 0.4116(3) 0.5601(4) 0.8861(3)
H39 H 0.3447 0.5704 0.9062
loop_
_geom_bond_atom_site_label_1
_geom_bond_atom_site_label_2
_geom_bond_site_symmetry_1
_geom_bond_site_symmetry_2
Zn12 O1 1_555 1_555
Zn3 O1 1_555 1_555
Zn4 O2 1_555 1_555
O3 Zn3 1_555 1_555
O4 Zn3 1_555 1_555
O5 Zn12 1_555 1_555
O7 Zn4 1_555 1_555
O8 C3 1_555 1_555
O10 C19 1_555 1_555
O11 C3 1_555 1_555
O12 C1 1_555 1_555
O15 Zn4 1_555 1_555
C1 O7 1_555 1_555
C2 O4 1_555 1_555
C3 C5 1_555 1_555
C5 C7 1_555 1_555
C6 C1 1_555 1_555
C7 C6 1_555 1_555
H3 C7 1_555 1_555
C9 H4 1_555 1_555
C10 C2 1_555 1_555
C11 C6 1_555 1_555
H5 C11 1_555 1_555
C12 C10 1_555 1_555
H6 C12 1_555 1_555
C13 O3 1_555 1_555
C15 C13 1_555 1_555
C16 C5 1_555 1_555
H8 C16 1_555 1_555
C17 C12 1_555 1_555
H9 C17 1_555 1_555
C18 C15 1_555 1_555
H10 C18 1_555 1_555
C19 O15 1_555 1_555
C20 C11 1_555 1_555
H11 C20 1_555 1_555
C21 C18 1_555 1_555
Zn9 O2 1_555 1_555
Zn12_3 O2 1_555 1_555
Zn14 O11 1_555 1_555
O36 Zn4 1_555 1_555
O41 Zn3 1_555 1_555
O5 C13 1_555 1_555
O6 C2 1_555 1_555
O10 Zn9 1_555 1_555
C9 C10 1_555 1_555
C16 C20 1_555 1_555
C19 C21 1_555 1_555
C14 C8 1_555 1_555
H7 C14 1_555 1_555
H12 C22 1_555 1_555
H13 C23 1_555 1_555
C24 C22 1_555 1_555
H14 C24 1_555 1_555
O24 C28 1_555 1_555
Zn16 O24 1_555 1_555
O34 Zn1 1_555 1_555
O39 Zn1 1_555 1_555
Zn12_2 O34 1_555 1_555
C23 C24 1_555 1_555
Zn16 O34 1_555 1_555
O36 C4 1_555 1_555
H26 C46 1_555 1_555
H27 C47 1_555 1_555
C48 C46 1_555 1_555
H28 C48 1_555 1_555
C47 C48 1_555 1_555
C38 C32 1_555 1_555
H21 C38 1_555 1_555
O31 Zn12_4 1_555 1_555
O35 Zn12_4 1_555 1_555
O13 H52 1_555 1_555
Zn14 O31 1_555 1_555
O18 Zn14 1_555 1_555
O19 Zn14 1_555 1_555
O35 C37 1_555 1_555
O22 Zn16 1_555 1_555
O23 C27 1_555 1_555
O39 C43 1_555 1_555
O41 C27 1_555 1_555
O27 C25 1_555 1_555
O30 Zn16 1_555 1_555
C25 O22 1_555 1_555
C26 O19 1_555 1_555
C27 C29 1_555 1_555
C29 C31 1_555 1_555
C30 C25 1_555 1_555
C31 C30 1_555 1_555
H17 C31 1_555 1_555
H18 C33 1_555 1_555
C34 C26 1_555 1_555
C35 C30 1_555 1_555
H19 C35 1_555 1_555
C36 C34 1_555 1_555
H20 C36 1_555 1_555
C37 O18 1_555 1_555
C39 C37 1_555 1_555
C40 C29 1_555 1_555
H22 C40 1_555 1_555
C41 C36 1_555 1_555
H23 C41 1_555 1_555
C42 C39 1_555 1_555
H24 C42 1_555 1_555
C43 O30 1_555 1_555
C44 C35 1_555 1_555
H25 C44 1_555 1_555
C45 C42 1_555 1_555
O21 C26 1_555 1_555
C33 C34 1_555 1_555
C40 C44 1_555 1_555
C43 C45 1_555 1_555
O28 H52_2 1_555 1_555
N2 C62 1_555 1_555
C61 C63 1_555 1_555
C62 H40 1_555 1_555
C63 C70 1_555 1_555
C64 C61 1_555 1_555
H41 C64 1_555 1_555
C66 C61 1_555 1_555
H42 C66 1_555 1_555
C67 N2 1_555 1_555
H43 C67 1_555 1_555
C68 N2 1_555 1_555
H44 C68 1_555 1_555
H45 C68 1_555 1_555
H46 C68 1_555 1_555
C69 C65 1_555 1_555
H47 C69 1_555 1_555
C70 C69 1_555 1_555
H48 C70 1_555 1_555
C71 C63 1_555 1_555
H49 C71 1_555 1_555
C72 C65 1_555 1_555
H50 C72 1_555 1_555
C62 C64 1_555 1_555
C66 C67 1_555 1_555
C71 C72 1_555 1_555
N1 C50 1_555 1_555
C49 C51 1_555 1_555
C50 H29 1_555 1_555
C51 C58 1_555 1_555
C52 C49 1_555 1_555
H30 C52 1_555 1_555
C53 C57 1_555 1_555
C54 C49 1_555 1_555
H31 C54 1_555 1_555
C55 N1 1_555 1_555
H32 C55 1_555 1_555
C56 N1 1_555 1_555
H33 C56 1_555 1_555
H34 C56 1_555 1_555
H35 C56 1_555 1_555
C57 H36 1_555 1_555
C58 C57 1_555 1_555
H37 C58 1_555 1_555
C59 C51 1_555 1_555
H38 C59 1_555 1_555
C60 C53 1_555 1_555
H39 C60 1_555 1_555
C50 C52 1_555 1_555
C54 C55 1_555 1_555
C59 C60 1_555 1_555

#END
