
###############################################################################
#
# This file contains modified crystal structure data generated from the
# MOF subset of the Cambridge Structural Database (CSD) v543 
# hosted by the Cambridge Crystallographic Data Centre (CCDC).
#
# This work is licensed under the Creative Commons
# Attribution-NonCommercial-ShareAlike 4.0 International License.
# To view a copy of this license, visit
# http://creativecommons.org/licenses/by-nc-sa/4.0/
# or send a letter to
# Creative Commons, PO Box 1866, Mountain View, CA 94042, USA.
#
# CIF created using the CSD Python API on 29 September 2022
# The structure has been converted into the P1 space group
# The structure has a 3D framework
# The original CSD entry ZARFUX is in the monoclinic crystal system
# The framework has been calculated to contain at least 10.0% void space
# The void calculation uses a probe of radius 1.32A, grid spacing 0.4
#
###############################################################################

data_ZARFUX
_chemical_formula_moiety         '(C160 H128 N16 O24 Zn2)n'
_symmetry_cell_setting           triclinic
_symmetry_space_group_name_H-M   'P 1'
_symmetry_Int_Tables_number      1
_space_group_name_Hall           'P 1'
loop_
_symmetry_equiv_pos_site_id
_symmetry_equiv_pos_as_xyz
1 x,y,z
_cell_length_a                   12.8109(13)
_cell_length_b                   19.0343(19)
_cell_length_c                   17.4196(17)
_cell_angle_alpha                90
_cell_angle_beta                 91.017(2)
_cell_angle_gamma                90
_cell_volume                     4247.04
loop_
_atom_site_label
_atom_site_type_symbol
_atom_site_fract_x
_atom_site_fract_y
_atom_site_fract_z
O4 O 0.4209(3) 0.23487(19) 0.1595(2)
O6 O 0.8744(2) 0.02381(14) 0.17895(19)
N2 N 0.4578(3) 0.17076(18) 0.0527(2)
H2 H 0.437396 0.169232 0.001049
C11 C 0.1384(4) 0.2644(2) 0.0108(3)
H9 H 0.069372 0.253187 0.020912
C12 C 0.2189(4) 0.2377(2) 0.0589(3)
H10 H 0.202584 0.209046 0.100209
C13 C 0.3203(3) 0.2536(2) 0.0449(3)
H11 H 0.502443 0.304673 0.003585
C20 C 0.4048(4) 0.2192(2) 0.0931(3)
C21 C 0.5440(3) 0.1287(2) 0.0756(3)
C22 C 0.5827(4) 0.0806(2) 0.0219(3)
C23 C 0.6669(3) 0.0375(2) 0.0364(3)
C24 C 0.7155(3) 0.0431(2) 0.1094(3)
C25 C 0.6785(3) 0.0920(2) 0.1611(3)
H16 H 0.713645 0.096783 0.207940
C26 C 0.5928(3) 0.1339(2) 0.1472(3)
H17 H 0.568386 0.164562 0.184343
O3 O 0.0807(3) 0.3103(2) 0.8270(2)
C9 C 0.0756(4) 0.3270(3) 0.8941(3)
C10 C 0.1602(4) 0.3059(2) 0.9507(3)
C14 C 0.3460(3) 0.3000(2) 0.9846(3)
C15 C 0.4489(4) 0.3212(2) 0.9717(3)
C16 C 0.4716(4) 0.3657(3) 0.9134(4)
H12 H 0.540259 0.379561 0.906004
C17 C 0.3929(5) 0.3905(3) 0.8647(3)
H13 H 0.409117 0.420354 0.824334
C18 C 0.2925(4) 0.3712(2) 0.8761(3)
H14 H 0.240388 0.388487 0.843372
C19 C 0.2649(3) 0.3255(2) 0.9366(3)
H15 H 0.549657 0.077733 0.974086
H20 H 0.774962 0.003240 0.959828
O5 O 0.8052(2) 0.93325(17) 0.11794(19)
C27 C 0.8042(3) 0.9965(3) 0.1360(3)
Zn3 Zn 0.97137(4) 0.95281(2) 0.21999(3)
Zn1 Zn 0.47137(4) 0.54719(2) 0.71999(3)
O1 O 0.5713(2) 0.51357(16) 0.79925(19)
O2 O 0.6229(3) 0.45605(19) 0.6996(2)
N1 N 0.9967(3) 0.36398(17) 0.9241(2)
H1 H 0.995997 0.375873 0.978284
N3 N 0.5495(3) 0.61167(17) 0.6497(2)
N4 N 0.8870(3) 0.88972(17) 0.2908(2)
C1 C 0.6345(4) 0.4738(3) 0.7680(3)
C2 C 0.7277(3) 0.4460(2) 0.8129(3)
C3 C 0.7888(4) 0.3963(2) 0.7775(3)
H3 H 0.769110 0.381360 0.728549
C4 C 0.8770(3) 0.3677(2) 0.8106(3)
H4 H 0.915809 0.334182 0.784768
C5 C 0.9068(3) 0.3900(2) 0.8834(3)
C6 C 0.8471(3) 0.4394(2) 0.9211(3)
H5 H 0.866862 0.453565 0.970341
C7 C 0.7576(3) 0.4683(2) 0.8867(3)
C8 C 0.6992(4) 0.5230(3) 0.9327(3)
H6 H 0.738073 0.533656 0.978917
H7 H 0.631761 0.505074 0.945707
H8 H 0.690897 0.564999 0.902653
C29 C 0.5436(4) 0.6058(3) 0.5756(4)
H21 H 0.496640 0.573550 0.554517
C30 C 0.6042(4) 0.6456(3) 0.5257(3)
H22 H 0.596246 0.640198 0.472885
C31 C 0.6758(4) 0.6929(3) 0.5551(3)
C32 C 0.6803(4) 0.6984(3) 0.6320(4)
H23 H 0.727224 0.729534 0.655068
C33 C 0.6163(4) 0.6586(3) 0.6769(3)
H24 H 0.620146 0.665034 0.729777
C34 C 0.7433(4) 0.7363(3) 0.5032(3)
H25 H 0.776584 0.772851 0.533759
H26 H 0.798140 0.706363 0.483714
C35 C 0.6890(4) 0.7693(3) 0.4379(3)
H27 H 0.635165 0.800058 0.457222
H28 H 0.654774 0.732906 0.407631
C36 C 0.7586(4) 0.8111(2) 0.3863(3)
C37 C 0.7734(4) 0.7929(2) 0.3116(3)
H29 H 0.740479 0.753144 0.291630
C38 C 0.8364(4) 0.8325(2) 0.2654(3)
H30 H 0.844256 0.819033 0.214524
C39 C 0.8740(3) 0.9063(2) 0.3641(3)
H31 H 0.909663 0.945141 0.383574
C40 C 0.8110(4) 0.8696(3) 0.4126(3)
H32 H 0.803832 0.884243 0.463204
O7 O 0.3744(2) 0.47619(14) 0.67895(19)
N5 N 0.3870(3) 0.61028(17) 0.7908(2)
O5_2 O 0.3052(2) 0.56675(17) 0.61794(19)
H11_2 H 0.002443 0.195327 0.503585
H12_2 H 0.040259 0.120439 0.406004
C21_2 C 0.0440(3) 0.3713(2) 0.5756(3)
C22_2 C 0.0827(4) 0.4194(2) 0.5219(3)
H15_2 H 0.049657 0.422267 0.474086
C23_2 C 0.1669(3) 0.4625(2) 0.5364(3)
C24_2 C 0.2155(3) 0.4569(2) 0.6094(3)
C25_2 C 0.1785(3) 0.4080(2) 0.6611(3)
H16_2 H 0.213645 0.403217 0.707940
C26_2 C 0.0928(3) 0.3661(2) 0.6472(3)
H17_2 H 0.068386 0.335438 0.684343
C27_2 C 0.3042(3) 0.5035(3) 0.6360(3)
C28 C 0.2058(4) 0.5106(2) 0.4738(3)
H18 H 0.159994 0.507487 0.429777
H19 H 0.207163 0.558173 0.492268
H20_2 H 0.274962 0.496760 0.459828
H22_2 H 0.096246 0.859802 0.972885
H26_2 H 0.298140 0.793637 0.983714
C35_2 C 0.1890(4) 0.7307(3) 0.9379(3)
H27_2 H 0.135165 0.699942 0.957222
H28_2 H 0.154774 0.767094 0.907631
C36_2 C 0.2586(4) 0.6889(2) 0.8863(3)
C37_2 C 0.2734(4) 0.7071(2) 0.8116(3)
H29_2 H 0.240479 0.746856 0.791630
C38_2 C 0.3364(4) 0.6675(2) 0.7654(3)
H30_2 H 0.344256 0.680967 0.714524
C39_2 C 0.3740(3) 0.5937(2) 0.8641(3)
H31_2 H 0.409663 0.554859 0.883574
C40_2 C 0.3110(4) 0.6304(3) 0.9126(3)
H32_2 H 0.303832 0.615757 0.963204
H21_2 H 0.996640 0.926450 0.054517
C28_2 C 0.7058(4) 0.9894(2) 0.9738(3)
H18_2 H 0.659994 0.992513 0.929777
H19_2 H 0.707163 0.941827 0.992268
Zn1_2 Zn 0.02863(4) 0.04719(2) 0.78001(3)
H21_3 H 0.003360 0.073550 0.945483
N5_2 N 0.1130(3) 0.11028(17) 0.7092(2)
N4_2 N 0.6130(3) 0.38972(17) 0.2092(2)
H22_3 H 0.903754 0.140198 0.027115
H26_3 H 0.701860 0.206363 0.016286
C35_3 C 0.8110(4) 0.2693(3) 0.0621(3)
H27_3 H 0.864835 0.300058 0.042778
H28_3 H 0.845226 0.232906 0.092369
C36_3 C 0.7414(4) 0.3111(2) 0.1137(3)
C37_3 C 0.7266(4) 0.2929(2) 0.1884(3)
H29_3 H 0.759521 0.253144 0.208370
C38_3 C 0.6636(4) 0.3325(2) 0.2346(3)
H30_3 H 0.655744 0.319033 0.285476
C39_3 C 0.6260(3) 0.4063(2) 0.1359(3)
H31_3 H 0.590337 0.445141 0.116426
C40_3 C 0.6890(4) 0.3696(3) 0.0874(3)
H32_3 H 0.696168 0.384243 0.036796
Zn2 Zn 0.52863(4) 0.45281(2) 0.28001(3)
O5_3 O 0.6948(2) 0.43325(17) 0.38206(19)
O6_2 O 0.6256(2) 0.52381(14) 0.32105(19)
H11_3 H 0.997557 0.804673 0.496415
H12_3 H 0.959741 0.879561 0.593996
C21_3 C 0.9560(3) 0.6287(2) 0.4244(3)
C22_3 C 0.9173(4) 0.5806(2) 0.4781(3)
H15_3 H 0.950343 0.577733 0.525914
C23_3 C 0.8331(3) 0.5375(2) 0.4636(3)
C24_3 C 0.7845(3) 0.5431(2) 0.3906(3)
C25_3 C 0.8215(3) 0.5920(2) 0.3389(3)
H16_3 H 0.786355 0.596783 0.292060
C26_3 C 0.9072(3) 0.6339(2) 0.3528(3)
H17_3 H 0.931614 0.664562 0.315657
C27_3 C 0.6958(3) 0.4965(3) 0.3640(3)
C28_3 C 0.7942(4) 0.4894(2) 0.5262(3)
H18_3 H 0.840006 0.492513 0.570223
H19_3 H 0.792837 0.441827 0.507732
H20_3 H 0.725038 0.503240 0.540172
O1_2 O 0.4287(2) 0.48643(16) 0.20075(19)
O2_2 O 0.3771(3) 0.54395(19) 0.3004(2)
N1_2 N 0.0033(3) 0.63602(17) 0.0759(2)
H1_2 H 0.004003 0.624127 0.021716
N3_2 N 0.4505(3) 0.38833(17) 0.3503(2)
C1_2 C 0.3655(4) 0.5262(3) 0.2320(3)
C2_2 C 0.2723(3) 0.5540(2) 0.1871(3)
C3_2 C 0.2112(4) 0.6037(2) 0.2225(3)
H3_2 H 0.230890 0.618640 0.271451
C4_2 C 0.1230(3) 0.6323(2) 0.1894(3)
H4_2 H 0.084191 0.665818 0.215232
C5_2 C 0.0932(3) 0.6100(2) 0.1166(3)
C6_2 C 0.1529(3) 0.5606(2) 0.0789(3)
H5_2 H 0.133138 0.546435 0.029659
C7_2 C 0.2424(3) 0.5317(2) 0.1133(3)
C8_2 C 0.3008(4) 0.4770(3) 0.0673(3)
H6_2 H 0.261927 0.466344 0.021083
H7_2 H 0.368239 0.494926 0.054293
H8_2 H 0.309103 0.435001 0.097347
C29_2 C 0.4564(4) 0.3942(3) 0.4244(4)
H21_4 H 0.503360 0.426450 0.445483
C30_2 C 0.3958(4) 0.3544(3) 0.4743(3)
H22_4 H 0.403754 0.359802 0.527115
C31_2 C 0.3242(4) 0.3071(3) 0.4449(3)
C32_2 C 0.3197(4) 0.3016(3) 0.3680(4)
H23_2 H 0.272776 0.270466 0.344932
C33_2 C 0.3837(4) 0.3414(3) 0.3231(3)
H24_2 H 0.379854 0.334966 0.270223
C34_2 C 0.2567(4) 0.2637(3) 0.4968(3)
H25_2 H 0.223416 0.227149 0.466241
H26_4 H 0.201860 0.293637 0.516286
C35_4 C 0.3110(4) 0.2307(3) 0.5621(3)
H27_4 H 0.364835 0.199942 0.542778
H28_4 H 0.345226 0.267094 0.592369
C36_4 C 0.2414(4) 0.1889(2) 0.6137(3)
C37_4 C 0.2266(4) 0.2071(2) 0.6884(3)
H29_4 H 0.259521 0.246856 0.708370
C38_4 C 0.1636(4) 0.1675(2) 0.7346(3)
H30_4 H 0.155744 0.180967 0.785476
C39_4 C 0.1260(3) 0.0937(2) 0.6359(3)
H31_4 H 0.090337 0.054859 0.616426
C40_4 C 0.1890(4) 0.1304(3) 0.5874(3)
H32_4 H 0.196168 0.115757 0.536796
O5_4 O 0.1948(2) 0.06675(17) 0.88206(19)
C27_4 C 0.1958(3) 0.0035(3) 0.8640(3)
O7_2 O 0.1256(2) 0.97619(14) 0.82105(19)
O4_2 O 0.5791(3) 0.76513(19) 0.8405(2)
N2_2 N 0.5422(3) 0.82924(18) 0.9473(2)
H2_2 H 0.562604 0.830768 0.998951
C11_2 C 0.8616(4) 0.7356(2) 0.9892(3)
H9_2 H 0.930628 0.746813 0.979088
C12_2 C 0.7811(4) 0.7623(2) 0.9411(3)
H10_2 H 0.797416 0.790954 0.899791
C13_2 C 0.6797(3) 0.7464(2) 0.9551(3)
H11_4 H 0.497557 0.695327 0.996415
C20_2 C 0.5952(4) 0.7808(2) 0.9069(3)
C21_4 C 0.4560(3) 0.8713(2) 0.9244(3)
C22_4 C 0.4173(4) 0.9194(2) 0.9781(3)
C23_4 C 0.3331(3) 0.9625(2) 0.9636(3)
C24_4 C 0.2845(3) 0.9569(2) 0.8906(3)
C25_4 C 0.3215(3) 0.9080(2) 0.8389(3)
H16_4 H 0.286355 0.903217 0.792060
C26_4 C 0.4072(3) 0.8661(2) 0.8528(3)
H17_4 H 0.431614 0.835438 0.815657
O1_3 O 0.9287(2) 0.01357(16) 0.70075(19)
N3_3 N 0.9505(3) 0.11167(17) 0.8503(2)
C8_3 C 0.8008(4) 0.0230(3) 0.5673(3)
H6_3 H 0.761927 0.033656 0.521083
H7_3 H 0.868239 0.005074 0.554293
H8_3 H 0.809103 0.064999 0.597347
C29_3 C 0.9564(4) 0.1058(3) 0.9244(4)
C30_3 C 0.8958(4) 0.1456(3) 0.9743(3)
C31_3 C 0.8242(4) 0.1929(3) 0.9449(3)
C32_3 C 0.8197(4) 0.1984(3) 0.8680(4)
H23_3 H 0.772776 0.229534 0.844932
C33_3 C 0.8837(4) 0.1586(3) 0.8231(3)
H24_3 H 0.879854 0.165034 0.770223
C34_3 C 0.7567(4) 0.2363(3) 0.9968(3)
H25_3 H 0.723416 0.272851 0.966241
O2_3 O 0.8771(3) 0.95605(19) 0.8004(2)
O3_2 O 0.4193(3) 0.8103(2) 0.6730(2)
O4_3 O 0.0791(3) 0.73487(19) 0.3405(2)
N1_3 N 0.5033(3) 0.86398(17) 0.5759(2)
H1_3 H 0.504003 0.875873 0.521716
N2_3 N 0.0422(3) 0.67076(18) 0.4473(2)
H2_3 H 0.062604 0.669232 0.498951
C1_3 C 0.8655(4) 0.9738(3) 0.7320(3)
C2_3 C 0.7723(3) 0.9460(2) 0.6871(3)
C3_3 C 0.7112(4) 0.8963(2) 0.7225(3)
H3_3 H 0.730890 0.881360 0.771451
C4_3 C 0.6230(3) 0.8677(2) 0.6894(3)
H4_3 H 0.584191 0.834182 0.715232
C5_3 C 0.5932(3) 0.8900(2) 0.6166(3)
C6_3 C 0.6529(3) 0.9394(2) 0.5789(3)
H5_3 H 0.633138 0.953565 0.529659
C7_3 C 0.7424(3) 0.9683(2) 0.6133(3)
C9_2 C 0.4244(4) 0.8270(3) 0.6059(3)
C10_2 C 0.3398(4) 0.8059(2) 0.5493(3)
C11_3 C 0.3616(4) 0.7644(2) 0.4892(3)
H9_3 H 0.430628 0.753187 0.479088
C12_3 C 0.2811(4) 0.7377(2) 0.4411(3)
H10_3 H 0.297416 0.709046 0.399791
C13_3 C 0.1797(3) 0.7536(2) 0.4551(3)
C14_2 C 0.1540(3) 0.8000(2) 0.5154(3)
C15_2 C 0.0511(4) 0.8212(2) 0.5283(3)
C16_2 C 0.0284(4) 0.8657(3) 0.5866(4)
C17_2 C 0.1071(5) 0.8905(3) 0.6353(3)
H13_2 H 0.090883 0.920354 0.675666
C18_2 C 0.2075(4) 0.8712(2) 0.6239(3)
H14_2 H 0.259612 0.888487 0.656628
C19_2 C 0.2351(3) 0.8255(2) 0.5634(3)
C20_3 C 0.0952(4) 0.7192(2) 0.4069(3)
C28_4 C 0.2942(4) 0.0106(2) 0.0262(3)
H18_4 H 0.340006 0.007487 0.070223
H19_4 H 0.292837 0.058173 0.007732
O3_3 O 0.9193(3) 0.6897(2) 0.1730(2)
C9_3 C 0.9244(4) 0.6730(3) 0.1059(3)
C10_3 C 0.8398(4) 0.6941(2) 0.0493(3)
C14_3 C 0.6540(3) 0.7000(2) 0.0154(3)
C15_3 C 0.5511(4) 0.6788(2) 0.0283(3)
C16_3 C 0.5284(4) 0.6343(3) 0.0866(4)
H12_4 H 0.459741 0.620439 0.093996
C17_3 C 0.6071(5) 0.6095(3) 0.1353(3)
H13_3 H 0.590883 0.579646 0.175666
C18_3 C 0.7075(4) 0.6288(2) 0.1239(3)
H14_3 H 0.759612 0.611513 0.156628
C19_3 C 0.7351(3) 0.6745(2) 0.0634(3)
H15_4 H 0.450343 0.922267 0.025914
H20_4 H 0.225038 0.996760 0.040172
O2_4 O 0.1229(3) 0.04395(19) 0.1996(2)
O3_4 O 0.5807(3) 0.1897(2) 0.3270(2)
O4_4 O 0.9209(3) 0.26513(19) 0.6595(2)
N1_4 N 0.4967(3) 0.13602(17) 0.4241(2)
H1_4 H 0.495997 0.124127 0.478284
N2_4 N 0.9578(3) 0.32924(18) 0.5527(2)
H2_4 H 0.937396 0.330768 0.501049
C1_4 C 0.1345(4) 0.0262(3) 0.2680(3)
C2_4 C 0.2277(3) 0.0540(2) 0.3129(3)
C3_4 C 0.2888(4) 0.1037(2) 0.2775(3)
H3_4 H 0.269110 0.118640 0.228549
C4_4 C 0.3770(3) 0.1323(2) 0.3106(3)
H4_4 H 0.415809 0.165818 0.284768
C5_4 C 0.4068(3) 0.1100(2) 0.3834(3)
C6_4 C 0.3471(3) 0.0606(2) 0.4211(3)
H5_4 H 0.366862 0.046435 0.470341
C7_4 C 0.2576(3) 0.0317(2) 0.3867(3)
C9_4 C 0.5756(4) 0.1730(3) 0.3941(3)
C10_4 C 0.6602(4) 0.1941(2) 0.4507(3)
C11_4 C 0.6384(4) 0.2356(2) 0.5108(3)
H9_4 H 0.569372 0.246813 0.520912
C12_4 C 0.7189(4) 0.2623(2) 0.5589(3)
H10_4 H 0.702584 0.290954 0.600209
C13_4 C 0.8203(3) 0.2464(2) 0.5449(3)
C14_4 C 0.8460(3) 0.2000(2) 0.4846(3)
C15_4 C 0.9489(4) 0.1788(2) 0.4717(3)
C16_4 C 0.9716(4) 0.1343(3) 0.4134(4)
C17_4 C 0.8929(5) 0.1095(3) 0.3647(3)
H13_4 H 0.909117 0.079646 0.324334
C18_4 C 0.7925(4) 0.1288(2) 0.3761(3)
H14_4 H 0.740388 0.111513 0.343372
C19_4 C 0.7649(3) 0.1745(2) 0.4366(3)
C20_4 C 0.9048(4) 0.2808(2) 0.5931(3)
O1_4 O 0.0713(2) 0.98643(16) 0.29925(19)
N3_4 N 0.0495(3) 0.88833(17) 0.1497(2)
C8_4 C 0.1992(4) 0.9770(3) 0.4327(3)
H6_4 H 0.238073 0.966344 0.478917
H7_4 H 0.131761 0.994926 0.445707
H8_4 H 0.190897 0.935001 0.402653
C29_4 C 0.0436(4) 0.8942(3) 0.0756(4)
C30_4 C 0.1042(4) 0.8544(3) 0.0257(3)
C31_4 C 0.1758(4) 0.8071(3) 0.0551(3)
C32_4 C 0.1803(4) 0.8016(3) 0.1320(4)
H23_4 H 0.227224 0.770466 0.155068
C33_4 C 0.1163(4) 0.8414(3) 0.1769(3)
H24_4 H 0.120146 0.834966 0.229777
C34_4 C 0.2433(4) 0.7637(3) 0.0032(3)
H25_4 H 0.276584 0.727149 0.033759
loop_
_geom_bond_atom_site_label_1
_geom_bond_atom_site_label_2
_geom_bond_site_symmetry_1
_geom_bond_site_symmetry_2
O4 C20 1_555 1_555
N2 H2 1_555 1_555
H9 C11 1_555 1_555
C12 C11 1_555 1_555
H10 C12 1_555 1_555
C13 C12 1_555 1_555
C20 N2 1_555 1_555
C21 N2 1_555 1_555
C22 C21 1_555 1_555
C23 C22 1_555 1_555
C24 C23 1_555 1_555
C25 C24 1_555 1_555
H16 C25 1_555 1_555
C26 C21 1_555 1_555
H17 C26 1_555 1_555
C13 C20 1_555 1_555
C25 C26 1_555 1_555
O3 C9 1_555 1_555
C10 C9 1_555 1_555
C15 C14 1_555 1_555
C16 C15 1_555 1_555
H12 C16 1_555 1_555
C17 C16 1_555 1_555
H13 C17 1_555 1_555
C18 C17 1_555 1_555
H14 C18 1_555 1_555
C19 C10 1_555 1_555
C14 C19 1_555 1_555
C18 C19 1_555 1_555
O5 C27 1_555 1_555
Zn1 O1 1_555 1_555
O1 C1 1_555 1_555
O2 C1 1_555 1_555
N1 H1 1_555 1_555
N3 Zn1 1_555 1_555
N4 C38 1_555 1_555
C1 C2 1_555 1_555
C2 C3 1_555 1_555
C3 H3 1_555 1_555
C4 C3 1_555 1_555
H4 C4 1_555 1_555
C5 N1 1_555 1_555
C6 C5 1_555 1_555
H5 C6 1_555 1_555
C7 C2 1_555 1_555
C8 C7 1_555 1_555
H6 C8 1_555 1_555
H7 C8 1_555 1_555
H8 C8 1_555 1_555
C29 N3 1_555 1_555
H21 C29 1_555 1_555
C30 C29 1_555 1_555
H22 C30 1_555 1_555
C31 C30 1_555 1_555
C32 C31 1_555 1_555
H23 C32 1_555 1_555
C33 N3 1_555 1_555
H24 C33 1_555 1_555
C34 C31 1_555 1_555
H25 C34 1_555 1_555
H26 C34 1_555 1_555
C35 C34 1_555 1_555
H27 C35 1_555 1_555
H28 C35 1_555 1_555
C36 C35 1_555 1_555
C37 C36 1_555 1_555
H29 C37 1_555 1_555
C38 C37 1_555 1_555
H30 C38 1_555 1_555
C39 N4 1_555 1_555
H31 C39 1_555 1_555
C40 C36 1_555 1_555
H32 C40 1_555 1_555
Zn3 N4 1_555 1_555
O7 Zn1 1_555 1_555
N5 Zn1 1_555 1_555
C4 C5 1_555 1_555
C6 C7 1_555 1_555
C32 C33 1_555 1_555
C39 C40 1_555 1_555
O5_2 C27_2 1_555 1_555
O7 C27_2 1_555 1_555
C22_2 C21_2 1_555 1_555
H15_2 C22_2 1_555 1_555
C23_2 C22_2 1_555 1_555
C24_2 C23_2 1_555 1_555
C25_2 C24_2 1_555 1_555
H16_2 C25_2 1_555 1_555
C26_2 C21_2 1_555 1_555
H17_2 C26_2 1_555 1_555
C27_2 C24_2 1_555 1_555
C28 C23_2 1_555 1_555
H18 C28 1_555 1_555
H19 C28 1_555 1_555
H20_2 C28 1_555 1_555
C25_2 C26_2 1_555 1_555
N5 C38_2 1_555 1_555
H27_2 C35_2 1_555 1_555
H28_2 C35_2 1_555 1_555
C36_2 C35_2 1_555 1_555
C37_2 C36_2 1_555 1_555
H29_2 C37_2 1_555 1_555
C38_2 C37_2 1_555 1_555
H30_2 C38_2 1_555 1_555
C39_2 N5 1_555 1_555
H31_2 C39_2 1_555 1_555
C40_2 C36_2 1_555 1_555
H32_2 C40_2 1_555 1_555
C39_2 C40_2 1_555 1_555
H18_2 C28_2 1_555 1_555
H19_2 C28_2 1_555 1_555
N5_2 Zn1_2 1_555 1_555
N4_2 C38_3 1_555 1_555
H27_3 C35_3 1_555 1_555
H28_3 C35_3 1_555 1_555
C36_3 C35_3 1_555 1_555
C37_3 C36_3 1_555 1_555
H29_3 C37_3 1_555 1_555
C38_3 C37_3 1_555 1_555
H30_3 C38_3 1_555 1_555
C39_3 N4_2 1_555 1_555
H31_3 C39_3 1_555 1_555
C40_3 C36_3 1_555 1_555
H32_3 C40_3 1_555 1_555
Zn2 N4_2 1_555 1_555
C39_3 C40_3 1_555 1_555
O5_3 C27_3 1_555 1_555
O6_2 C27_3 1_555 1_555
C22_3 C21_3 1_555 1_555
H15_3 C22_3 1_555 1_555
C23_3 C22_3 1_555 1_555
C24_3 C23_3 1_555 1_555
C25_3 C24_3 1_555 1_555
H16_3 C25_3 1_555 1_555
C26_3 C21_3 1_555 1_555
H17_3 C26_3 1_555 1_555
C27_3 C24_3 1_555 1_555
C28_3 C23_3 1_555 1_555
H18_3 C28_3 1_555 1_555
H19_3 C28_3 1_555 1_555
H20_3 C28_3 1_555 1_555
Zn2 O6_2 1_555 1_555
C25_3 C26_3 1_555 1_555
Zn2 O1_2 1_555 1_555
O1_2 C1_2 1_555 1_555
O2_2 C1_2 1_555 1_555
N1_2 H1_2 1_555 1_555
N3_2 Zn2 1_555 1_555
N5_2 C38_4 1_555 1_555
C1_2 C2_2 1_555 1_555
C2_2 C3_2 1_555 1_555
C3_2 H3_2 1_555 1_555
C4_2 C3_2 1_555 1_555
H4_2 C4_2 1_555 1_555
C5_2 N1_2 1_555 1_555
C6_2 C5_2 1_555 1_555
H5_2 C6_2 1_555 1_555
C7_2 C2_2 1_555 1_555
C8_2 C7_2 1_555 1_555
H6_2 C8_2 1_555 1_555
H7_2 C8_2 1_555 1_555
H8_2 C8_2 1_555 1_555
C29_2 N3_2 1_555 1_555
H21_4 C29_2 1_555 1_555
C30_2 C29_2 1_555 1_555
H22_4 C30_2 1_555 1_555
C31_2 C30_2 1_555 1_555
C32_2 C31_2 1_555 1_555
H23_2 C32_2 1_555 1_555
C33_2 N3_2 1_555 1_555
H24_2 C33_2 1_555 1_555
C34_2 C31_2 1_555 1_555
H25_2 C34_2 1_555 1_555
H26_4 C34_2 1_555 1_555
C35_4 C34_2 1_555 1_555
H27_4 C35_4 1_555 1_555
H28_4 C35_4 1_555 1_555
C36_4 C35_4 1_555 1_555
C37_4 C36_4 1_555 1_555
H29_4 C37_4 1_555 1_555
C38_4 C37_4 1_555 1_555
H30_4 C38_4 1_555 1_555
C39_4 N5_2 1_555 1_555
H31_4 C39_4 1_555 1_555
C40_4 C36_4 1_555 1_555
H32_4 C40_4 1_555 1_555
C4_2 C5_2 1_555 1_555
C6_2 C7_2 1_555 1_555
C32_2 C33_2 1_555 1_555
C39_4 C40_4 1_555 1_555
O5_4 C27_4 1_555 1_555
O4_2 C20_2 1_555 1_555
N2_2 H2_2 1_555 1_555
H9_2 C11_2 1_555 1_555
C12_2 C11_2 1_555 1_555
H10_2 C12_2 1_555 1_555
C13_2 C12_2 1_555 1_555
C20_2 N2_2 1_555 1_555
C21_4 N2_2 1_555 1_555
C22_4 C21_4 1_555 1_555
C23_4 C22_4 1_555 1_555
C24_4 C23_4 1_555 1_555
C25_4 C24_4 1_555 1_555
H16_4 C25_4 1_555 1_555
C26_4 C21_4 1_555 1_555
H17_4 C26_4 1_555 1_555
C13_2 C20_2 1_555 1_555
C25_4 C26_4 1_555 1_555
H6_3 C8_3 1_555 1_555
H7_3 C8_3 1_555 1_555
H8_3 C8_3 1_555 1_555
C29_3 N3_3 1_555 1_555
C30_3 C29_3 1_555 1_555
C31_3 C30_3 1_555 1_555
C32_3 C31_3 1_555 1_555
H23_3 C32_3 1_555 1_555
C33_3 N3_3 1_555 1_555
H24_3 C33_3 1_555 1_555
C34_3 C31_3 1_555 1_555
H25_3 C34_3 1_555 1_555
C32_3 C33_3 1_555 1_555
O2_3 C1_3 1_555 1_555
O3_2 C9_2 1_555 1_555
O4_3 C20_3 1_555 1_555
N1_3 H1_3 1_555 1_555
N2_3 H2_3 1_555 1_555
C1_3 C2_3 1_555 1_555
C2_3 C3_3 1_555 1_555
C3_3 H3_3 1_555 1_555
C4_3 C3_3 1_555 1_555
H4_3 C4_3 1_555 1_555
C5_3 N1_3 1_555 1_555
C6_3 C5_3 1_555 1_555
H5_3 C6_3 1_555 1_555
C7_3 C2_3 1_555 1_555
C9_2 N1_3 1_555 1_555
C10_2 C9_2 1_555 1_555
C11_3 C10_2 1_555 1_555
H9_3 C11_3 1_555 1_555
C12_3 C11_3 1_555 1_555
H10_3 C12_3 1_555 1_555
C13_3 C12_3 1_555 1_555
C14_2 C13_3 1_555 1_555
C15_2 C14_2 1_555 1_555
C16_2 C15_2 1_555 1_555
C17_2 C16_2 1_555 1_555
H13_2 C17_2 1_555 1_555
C18_2 C17_2 1_555 1_555
H14_2 C18_2 1_555 1_555
C19_2 C10_2 1_555 1_555
C20_3 N2_3 1_555 1_555
C4_3 C5_3 1_555 1_555
C6_3 C7_3 1_555 1_555
C13_3 C20_3 1_555 1_555
C14_2 C19_2 1_555 1_555
C18_2 C19_2 1_555 1_555
H18_4 C28_4 1_555 1_555
H19_4 C28_4 1_555 1_555
O3_3 C9_3 1_555 1_555
C10_3 C9_3 1_555 1_555
C15_3 C14_3 1_555 1_555
C16_3 C15_3 1_555 1_555
H12_4 C16_3 1_555 1_555
C17_3 C16_3 1_555 1_555
H13_3 C17_3 1_555 1_555
C18_3 C17_3 1_555 1_555
H14_3 C18_3 1_555 1_555
C19_3 C10_3 1_555 1_555
C14_3 C19_3 1_555 1_555
C18_3 C19_3 1_555 1_555
O2_4 C1_4 1_555 1_555
O3_4 C9_4 1_555 1_555
O4_4 C20_4 1_555 1_555
N1_4 H1_4 1_555 1_555
N2_4 H2_4 1_555 1_555
C1_4 C2_4 1_555 1_555
C2_4 C3_4 1_555 1_555
C3_4 H3_4 1_555 1_555
C4_4 C3_4 1_555 1_555
H4_4 C4_4 1_555 1_555
C5_4 N1_4 1_555 1_555
C6_4 C5_4 1_555 1_555
H5_4 C6_4 1_555 1_555
C7_4 C2_4 1_555 1_555
C9_4 N1_4 1_555 1_555
C10_4 C9_4 1_555 1_555
C11_4 C10_4 1_555 1_555
H9_4 C11_4 1_555 1_555
C12_4 C11_4 1_555 1_555
H10_4 C12_4 1_555 1_555
C13_4 C12_4 1_555 1_555
C14_4 C13_4 1_555 1_555
C15_4 C14_4 1_555 1_555
C16_4 C15_4 1_555 1_555
C17_4 C16_4 1_555 1_555
H13_4 C17_4 1_555 1_555
C18_4 C17_4 1_555 1_555
H14_4 C18_4 1_555 1_555
C19_4 C10_4 1_555 1_555
C20_4 N2_4 1_555 1_555
C4_4 C5_4 1_555 1_555
C6_4 C7_4 1_555 1_555
C13_4 C20_4 1_555 1_555
C14_4 C19_4 1_555 1_555
C18_4 C19_4 1_555 1_555
H6_4 C8_4 1_555 1_555
H7_4 C8_4 1_555 1_555
H8_4 C8_4 1_555 1_555
C29_4 N3_4 1_555 1_555
C30_4 C29_4 1_555 1_555
C31_4 C30_4 1_555 1_555
C32_4 C31_4 1_555 1_555
H23_4 C32_4 1_555 1_555
C33_4 N3_4 1_555 1_555
H24_4 C33_4 1_555 1_555
C34_4 C31_4 1_555 1_555
H25_4 C34_4 1_555 1_555
C32_4 C33_4 1_555 1_555

#END
