
###############################################################################
#
# This file contains modified crystal structure data generated from the
# MOF subset of the Cambridge Structural Database (CSD) v543 
# hosted by the Cambridge Crystallographic Data Centre (CCDC).
#
# This work is licensed under the Creative Commons
# Attribution-NonCommercial-ShareAlike 4.0 International License.
# To view a copy of this license, visit
# http://creativecommons.org/licenses/by-nc-sa/4.0/
# or send a letter to
# Creative Commons, PO Box 1866, Mountain View, CA 94042, USA.
#
# CIF created using the CSD Python API on 29 September 2022
# The structure has been converted into the P1 space group
# The structure has a 3D framework
# The original CSD entry ZARZAV is in the monoclinic crystal system
# The framework has been calculated to contain at least 10.0% void space
# The void calculation uses a probe of radius 1.32A, grid spacing 0.4
#
###############################################################################

data_ZARZAV
_chemical_formula_moiety         '(C80 H48 F16 N8 O16 Zn4)n'
_symmetry_cell_setting           triclinic
_symmetry_space_group_name_H-M   'P 1'
_symmetry_Int_Tables_number      1
_space_group_name_Hall           'P 1'
loop_
_symmetry_equiv_pos_site_id
_symmetry_equiv_pos_as_xyz
1 x,y,z
_cell_length_a                   11.7527(13)
_cell_length_b                   12.4829(13)
_cell_length_c                   16.6089(18)
_cell_angle_alpha                90
_cell_angle_beta                 90.477(3)
_cell_angle_gamma                90
_cell_volume                     2436.57
loop_
_atom_site_label
_atom_site_type_symbol
_atom_site_fract_x
_atom_site_fract_y
_atom_site_fract_z
Zn1 Zn 0.35135(4) 0.24803(5) 0.25053(3)
C1 C 0.4667(4) 0.3391(4) 0.3725(3)
C2 C 0.4853(4) 0.4249(4) 0.4361(2)
C3 C 0.5871(4) 0.4351(4) 0.4777(2)
C4 C 0.6017(4) 0.5078(4) 0.5395(3)
C7 C 0.4824(4) 0.0769(4) 0.0620(3)
C8 C 0.4629(4) 0.1603(4) 0.1272(3)
C9 C 0.2174(4) 0.2080(4) 0.4006(3)
H1 H 0.2643 0.2606 0.4227
C10 C 0.1690(4) 0.0990(4) 0.2955(3)
H2 H 0.1805 0.0761 0.2430
C11 C 0.1325(4) 0.1668(4) 0.4474(3)
H3 H 0.1214 0.1927 0.4993
C12 C 0.0842(4) 0.0519(4) 0.3389(3)
C13 C 0.0635(4) 0.0866(4) 0.4173(3)
C16 C 0.0590(4) 0.4143(4) 0.0860(3)
C17 C 0.0796(4) 0.4457(4) 0.1648(3)
H9 H 0.0365 0.4999 0.1879
C18 C 0.1254(4) 0.3326(4) 0.0554(3)
H10 H 0.1132 0.3080 0.0032
C19 C 0.1650(4) 0.3959(4) 0.2087(3)
H11 H 0.1767 0.4169 0.2618
C20 C 0.2099(4) 0.2877(4) 0.1029(3)
H12 H 0.2539 0.2331 0.0812
N1 N 0.2364(3) 0.1765(3) 0.3249(2)
N2 N 0.2315(3) 0.3191(3) 0.1788(2)
O1 O 0.4126(3) 0.3707(3) 0.30930(17)
O2 O 0.4988(3) 0.2470(3) 0.38540(18)
O3 O 0.4068(3) 0.1272(3) 0.18753(17)
O4 O 0.4957(3) 0.2525(3) 0.11698(18)
F1 F 0.6778(2) 0.3773(2) 0.45536(15)
F2 F 0.7055(2) 0.5136(2) 0.57442(15)
Zn5 Zn 0.64865(4) 0.75197(5) 0.74947(3)
C21 C 0.5333(4) 0.6609(4) 0.6275(3)
C22 C 0.5147(4) 0.5751(4) 0.5639(2)
C23 C 0.4129(4) 0.5649(4) 0.5223(2)
C24 C 0.3983(4) 0.4922(4) 0.4605(3)
H17 H 0.0771 0.0051 0.5664
O5 O 0.5874(3) 0.6293(3) 0.69070(17)
O7 O 0.5012(3) 0.7530(3) 0.61460(18)
F5 F 0.3222(2) 0.6227(2) 0.54464(15)
F6 F 0.2945(2) 0.4864(2) 0.42558(15)
C27 C 0.5176(4) 0.9231(4) 0.9380(3)
C28 C 0.5371(4) 0.8397(4) 0.8728(3)
O8 O 0.5932(3) 0.8728(3) 0.81247(17)
O10 O 0.5043(3) 0.7475(3) 0.88302(18)
C36 C 0.9410(4) 0.5857(4) 0.9140(3)
C37 C 0.9204(4) 0.5543(4) 0.8352(3)
H21 H 0.9635 0.5001 0.8121
C38 C 0.8746(4) 0.6674(4) 0.9446(3)
H22 H 0.8868 0.6920 0.9968
C39 C 0.8350(4) 0.6041(4) 0.7913(3)
H23 H 0.8233 0.5831 0.7382
C40 C 0.7901(4) 0.7123(4) 0.8971(3)
H24 H 0.7461 0.7669 0.9188
N4 N 0.7685(3) 0.6809(3) 0.8212(2)
H5 H 0.9229 0.9949 0.4336
C29 C 0.7826(4) 0.7920(4) 0.5994(3)
H13 H 0.7357 0.7394 0.5773
C30 C 0.8310(4) 0.9010(4) 0.7045(3)
H14 H 0.8195 0.9239 0.7570
C31 C 0.8675(4) 0.8332(4) 0.5526(3)
H15 H 0.8786 0.8073 0.5007
C32 C 0.9158(4) 0.9481(4) 0.6611(3)
C33 C 0.9365(4) 0.9134(4) 0.5827(3)
N3 N 0.7636(3) 0.8235(3) 0.6751(2)
C5 C 0.4756(4) 0.0242(4) 0.9219(3)
C6 C 0.4582(4) 0.0988(4) 0.9812(3)
F3 F 0.4486(2) 0.0524(2) 0.84571(14)
F4 F 0.4134(2) 0.1939(2) 0.96100(15)
C35 C 0.0288(4) 0.5323(4) 0.9664(3)
H19 H 0.0750 0.4848 0.9339
H20 H 0.0784 0.5861 0.9900
H4 H 0.0408 0.9972 0.3163
C25 C 0.5244(4) 0.9758(4) 0.0781(3)
C26 C 0.5418(4) 0.9012(4) 0.0188(3)
C34 C 0.0263(4) 0.9635(4) 0.5323(3)
H18 H 0.0707 0.9078 0.5066
F7 F 0.5514(2) 0.9476(2) 0.15429(14)
F8 F 0.5866(2) 0.8061(2) 0.03900(15)
C14 C 0.9737(4) 0.0365(4) 0.4677(3)
H6 H 0.9293 0.0922 0.4934
C15 C 0.9712(4) 0.4677(4) 0.0336(3)
H7 H 0.9250 0.5152 0.0661
H8 H 0.9216 0.4139 0.0100
H16 H 0.9592 0.0028 0.6837
H7_2 H 0.5750 0.0152 0.4339
Zn3 Zn 0.85135(4) 0.25197(5) 0.75053(3)
C35_2 C 0.4712(4) 0.0323(4) 0.5336(3)
H20_2 H 0.4216 0.0861 0.5100
C36_2 C 0.5590(4) 0.0857(4) 0.5860(3)
C37_2 C 0.5796(4) 0.0543(4) 0.6648(3)
H21_2 H 0.5365 0.0001 0.6879
C38_2 C 0.6254(4) 0.1674(4) 0.5554(3)
H22_2 H 0.6132 0.1920 0.5032
C39_2 C 0.6650(4) 0.1041(4) 0.7087(3)
H23_2 H 0.6767 0.0831 0.7618
C40_2 C 0.7099(4) 0.2123(4) 0.6029(3)
H24_2 H 0.7539 0.2669 0.5812
N4_2 N 0.7315(3) 0.1809(3) 0.6788(2)
C29_2 C 0.7174(4) 0.2920(4) 0.9006(3)
H13_2 H 0.7643 0.2394 0.9227
C30_2 C 0.6690(4) 0.4010(4) 0.7955(3)
H14_2 H 0.6805 0.4239 0.7430
C31_2 C 0.6325(4) 0.3332(4) 0.9474(3)
H15_2 H 0.6214 0.3073 0.9993
C32_2 C 0.5842(4) 0.4481(4) 0.8389(3)
H16_2 H 0.5408 0.5028 0.8163
C33_2 C 0.5635(4) 0.4134(4) 0.9173(3)
C34_2 C 0.4737(4) 0.4635(4) 0.9677(3)
H17_2 H 0.4229 0.5051 0.9336
H18_2 H 0.4293 0.4078 0.9934
N3_2 N 0.7364(3) 0.3235(3) 0.8249(2)
O6 O 0.9126(3) 0.1293(3) 0.80930(17)
O9 O 0.9068(3) 0.3728(3) 0.68753(17)
C4_2 C 0.8983(4) 0.0078(4) 0.9605(3)
F2_2 F 0.7945(2) 0.0136(2) 0.92558(15)
C21_2 C 0.9667(4) 0.1609(4) 0.8725(3)
C22_2 C 0.9853(4) 0.0751(4) 0.9361(2)
O7_2 O 0.9988(3) 0.2530(3) 0.88540(18)
C3_2 C 0.9129(4) 0.9351(4) 0.0223(2)
F1_2 F 0.8222(2) 0.8773(2) 0.04464(15)
C25_2 C 0.9756(4) 0.4758(4) 0.4219(3)
C26_2 C 0.9582(4) 0.4012(4) 0.4812(3)
C27_2 C 0.9824(4) 0.4231(4) 0.5620(3)
C28_2 C 0.9629(4) 0.3397(4) 0.6272(3)
O10_2 O 0.9957(3) 0.2475(3) 0.61698(18)
F7_2 F 0.9486(2) 0.4476(2) 0.34571(14)
F8_2 F 0.9134(2) 0.3061(2) 0.46100(15)
C23_2 C 0.0871(4) 0.0649(4) 0.9777(2)
F5_2 F 0.1778(2) 0.1227(2) 0.95536(15)
Zn1_2 Zn 0.14865(4) 0.74803(5) 0.24947(3)
C1_2 C 0.0333(4) 0.8391(4) 0.1275(3)
C2_2 C 0.0147(4) 0.9249(4) 0.0639(2)
C5_2 C 0.0244(4) 0.5242(4) 0.5781(3)
C6_2 C 0.0418(4) 0.5988(4) 0.5188(3)
C7_2 C 0.0176(4) 0.5769(4) 0.4380(3)
C8_2 C 0.0371(4) 0.6603(4) 0.3728(3)
C9_2 C 0.2826(4) 0.7080(4) 0.0994(3)
H1_2 H 0.2357 0.7606 0.0773
C10_2 C 0.3310(4) 0.5990(4) 0.2045(3)
H2_2 H 0.3195 0.5761 0.2570
C11_2 C 0.3675(4) 0.6668(4) 0.0526(3)
H3_2 H 0.3786 0.6927 0.0007
C12_2 C 0.4158(4) 0.5519(4) 0.1611(3)
H4_2 H 0.4592 0.4972 0.1837
C13_2 C 0.4365(4) 0.5866(4) 0.0827(3)
C14_2 C 0.5263(4) 0.5365(4) 0.0323(3)
H5_2 H 0.5771 0.4949 0.0664
H6_2 H 0.5707 0.5922 0.0066
C15_2 C 0.5288(4) 0.9677(4) 0.4664(3)
H8_2 H 0.5784 0.9139 0.4900
C16_2 C 0.4410(4) 0.9143(4) 0.4140(3)
C17_2 C 0.4204(4) 0.9457(4) 0.3352(3)
H9_2 H 0.4635 0.9999 0.3121
C18_2 C 0.3746(4) 0.8326(4) 0.4446(3)
H10_2 H 0.3868 0.8080 0.4968
C19_2 C 0.3350(4) 0.8959(4) 0.2913(3)
H11_2 H 0.3233 0.9169 0.2382
C20_2 C 0.2901(4) 0.7877(4) 0.3971(3)
H12_2 H 0.2461 0.7331 0.4188
N1_2 N 0.2636(3) 0.6765(3) 0.1751(2)
N2_2 N 0.2685(3) 0.8191(3) 0.3212(2)
O1_2 O 0.0874(3) 0.8707(3) 0.19070(17)
O2_2 O 0.0012(3) 0.7470(3) 0.11460(18)
O3_2 O 0.0932(3) 0.6272(3) 0.31247(17)
O4_2 O 0.0043(3) 0.7525(3) 0.38302(18)
F3_2 F 0.0514(2) 0.5524(2) 0.65429(14)
F4_2 F 0.0866(2) 0.6939(2) 0.53900(15)
C24_2 C 0.1017(4) 0.9922(4) 0.0395(3)
H19_2 H 0.4250 0.9848 0.5661
F6_2 F 0.2055(2) 0.9864(2) 0.07442(15)
loop_
_geom_bond_atom_site_label_1
_geom_bond_atom_site_label_2
_geom_bond_site_symmetry_1
_geom_bond_site_symmetry_2
Zn1 N1 1_555 1_555
C1 C2 1_555 1_555
C2 C3 1_555 1_555
C3 C4 1_555 1_555
C4 F2 1_555 1_555
C7 C8 1_555 1_555
C8 O3 1_555 1_555
C9 H1 1_555 1_555
C10 H2 1_555 1_555
C11 C9 1_555 1_555
H3 C11 1_555 1_555
C12 C10 1_555 1_555
C13 C11 1_555 1_555
C17 C16 1_555 1_555
H9 C17 1_555 1_555
C18 C16 1_555 1_555
H10 C18 1_555 1_555
C19 C17 1_555 1_555
H11 C19 1_555 1_555
C20 C18 1_555 1_555
H12 C20 1_555 1_555
N1 C9 1_555 1_555
N2 Zn1 1_555 1_555
O1 Zn1 1_555 1_555
O2 C1 1_555 1_555
O3 Zn1 1_555 1_555
O4 C8 1_555 1_555
F1 C3 1_555 1_555
Zn5 O5 1_555 1_555
C21 C22 1_555 1_555
C22 C4 1_555 1_555
C23 C22 1_555 1_555
C24 C2 1_555 1_555
O5 C21 1_555 1_555
O7 C21 1_555 1_555
F5 C23 1_555 1_555
F6 C24 1_555 1_555
C1 O1 1_555 1_555
C10 N1 1_555 1_555
C12 C13 1_555 1_555
C19 N2 1_555 1_555
C20 N2 1_555 1_555
C23 C24 1_555 1_555
Zn5 O8 1_555 1_555
C28 C27 1_555 1_555
O8 C28 1_555 1_555
O10 C28 1_555 1_555
Zn5 N4 1_555 1_555
C37 C36 1_555 1_555
H21 C37 1_555 1_555
C38 C36 1_555 1_555
H22 C38 1_555 1_555
C39 C37 1_555 1_555
H23 C39 1_555 1_555
C40 C38 1_555 1_555
H24 C40 1_555 1_555
N4 C39 1_555 1_555
C40 N4 1_555 1_555
Zn5 N3 1_555 1_555
C29 H13 1_555 1_555
C30 H14 1_555 1_555
C31 C29 1_555 1_555
H15 C31 1_555 1_555
C32 C30 1_555 1_555
C33 C31 1_555 1_555
N3 C29 1_555 1_555
C30 N3 1_555 1_555
C32 C33 1_555 1_555
C5 C6 1_555 1_555
F3 C5 1_555 1_555
F4 C6 1_555 1_555
H19 C35 1_555 1_555
H20 C35 1_555 1_555
C26 C25 1_555 1_555
H18 C34 1_555 1_555
F7 C25 1_555 1_555
F8 C26 1_555 1_555
H6 C14 1_555 1_555
C15 H7 1_555 1_555
H8 C15 1_555 1_555
Zn3 N4_2 1_555 1_555
H20_2 C35_2 1_555 1_555
C36_2 C35_2 1_555 1_555
C37_2 C36_2 1_555 1_555
H21_2 C37_2 1_555 1_555
C38_2 C36_2 1_555 1_555
H22_2 C38_2 1_555 1_555
C39_2 C37_2 1_555 1_555
H23_2 C39_2 1_555 1_555
C40_2 C38_2 1_555 1_555
H24_2 C40_2 1_555 1_555
N4_2 C39_2 1_555 1_555
C40_2 N4_2 1_555 1_555
Zn3 N3_2 1_555 1_555
C29_2 H13_2 1_555 1_555
C30_2 H14_2 1_555 1_555
C31_2 C29_2 1_555 1_555
H15_2 C31_2 1_555 1_555
C32_2 C30_2 1_555 1_555
H16_2 C32_2 1_555 1_555
C33_2 C31_2 1_555 1_555
H17_2 C34_2 1_555 1_555
H18_2 C34_2 1_555 1_555
N3_2 C29_2 1_555 1_555
O6 Zn3 1_555 1_555
O9 Zn3 1_555 1_555
C30_2 N3_2 1_555 1_555
C32_2 C33_2 1_555 1_555
C33_2 C34_2 1_555 1_555
C4_2 F2_2 1_555 1_555
C21_2 C22_2 1_555 1_555
C22_2 C4_2 1_555 1_555
O6 C21_2 1_555 1_555
O7_2 C21_2 1_555 1_555
F1_2 C3_2 1_555 1_555
C26_2 C25_2 1_555 1_555
C28_2 C27_2 1_555 1_555
O9 C28_2 1_555 1_555
O10_2 C28_2 1_555 1_555
F7_2 C25_2 1_555 1_555
F8_2 C26_2 1_555 1_555
C26_2 C27_2 1_555 1_555
F5_2 C23_2 1_555 1_555
Zn1_2 N1_2 1_555 1_555
C1_2 C2_2 1_555 1_555
C5_2 C6_2 1_555 1_555
C6_2 C7_2 1_555 1_555
C7_2 C8_2 1_555 1_555
C8_2 O3_2 1_555 1_555
C9_2 H1_2 1_555 1_555
C10_2 H2_2 1_555 1_555
C11_2 C9_2 1_555 1_555
H3_2 C11_2 1_555 1_555
C12_2 C10_2 1_555 1_555
H4_2 C12_2 1_555 1_555
C13_2 C11_2 1_555 1_555
C14_2 C13_2 1_555 1_555
H5_2 C14_2 1_555 1_555
H6_2 C14_2 1_555 1_555
H8_2 C15_2 1_555 1_555
C16_2 C15_2 1_555 1_555
C17_2 C16_2 1_555 1_555
H9_2 C17_2 1_555 1_555
C18_2 C16_2 1_555 1_555
H10_2 C18_2 1_555 1_555
C19_2 C17_2 1_555 1_555
H11_2 C19_2 1_555 1_555
C20_2 C18_2 1_555 1_555
H12_2 C20_2 1_555 1_555
N1_2 C9_2 1_555 1_555
N2_2 Zn1_2 1_555 1_555
O1_2 Zn1_2 1_555 1_555
O2_2 C1_2 1_555 1_555
O3_2 Zn1_2 1_555 1_555
O4_2 C8_2 1_555 1_555
F3_2 C5_2 1_555 1_555
F4_2 C6_2 1_555 1_555
C24_2 C2_2 1_555 1_555
F6_2 C24_2 1_555 1_555
C1_2 O1_2 1_555 1_555
C10_2 N1_2 1_555 1_555
C12_2 C13_2 1_555 1_555
C19_2 N2_2 1_555 1_555
C20_2 N2_2 1_555 1_555

#END
