
###############################################################################
#
# This file contains modified crystal structure data generated from the
# MOF subset of the Cambridge Structural Database (CSD) v543 
# hosted by the Cambridge Crystallographic Data Centre (CCDC).
#
# This work is licensed under the Creative Commons
# Attribution-NonCommercial-ShareAlike 4.0 International License.
# To view a copy of this license, visit
# http://creativecommons.org/licenses/by-nc-sa/4.0/
# or send a letter to
# Creative Commons, PO Box 1866, Mountain View, CA 94042, USA.
#
# CIF created using the CSD Python API on 29 September 2022
# The structure has been converted into the P1 space group
# The structure has a 3D framework
# The original CSD entry ZAWBUX is in the monoclinic crystal system
# The framework has been calculated to contain at least 10.0% void space
# The void calculation uses a probe of radius 1.32A, grid spacing 0.4
#
###############################################################################

data_ZAWBUX
_chemical_formula_moiety         '(C56 H64 N48 Zn8)n'
_symmetry_cell_setting           triclinic
_symmetry_space_group_name_H-M   'P 1'
_symmetry_Int_Tables_number      1
_space_group_name_Hall           'P 1'
loop_
_symmetry_equiv_pos_site_id
_symmetry_equiv_pos_as_xyz
1 x,y,z
_cell_length_a                   10.8619(16)
_cell_length_b                   12.4407(18)
_cell_length_c                   16.687(2)
_cell_angle_alpha                90
_cell_angle_beta                 94.524(3)
_cell_angle_gamma                90
_cell_volume                     2247.88
loop_
_atom_site_label
_atom_site_type_symbol
_atom_site_fract_x
_atom_site_fract_y
_atom_site_fract_z
N2 N 0.0674(3) 0.8754(3) 0.5607(2)
N3 N 0.0600(3) 0.7912(3) 0.50633(19)
H9 H 0.0006 0.9932 0.6740
Zn4 Zn 0.21247(4) 0.74259(3) 0.46162(2)
Zn1 Zn 0.72697(4) 0.73539(4) 0.59663(2)
N1 N 0.8809(3) 0.7998(3) 0.55848(19)
N4 N 0.7477(3) 0.5907(3) 0.54488(17)
N5 N 0.8542(3) 0.4699(3) 0.47867(17)
N6 N 0.7738(3) 0.4169(3) 0.52613(18)
N7 N 0.5657(3) 0.7977(3) 0.55528(17)
N8 N 0.5650(3) 0.8590(3) 0.48551(17)
N9 N 0.3733(3) 0.8056(3) 0.50457(17)
N10 N 0.2374(3) 0.7807(3) 0.34676(17)
N11 N 0.3270(3) 0.8602(3) 0.24698(18)
N12 N 0.2411(3) 0.7846(3) 0.21580(18)
C1 C 0.0975(4) 0.6508(3) 0.2683(2)
H1 H 0.0813 0.6320 0.2115
H2 H 0.0206 0.6748 0.2898
H3 H 0.1293 0.5877 0.2984
C2 C 0.1905(4) 0.7390(3) 0.2766(2)
C3 C 0.3217(3) 0.8539(3) 0.3251(2)
C4 C 0.4006(3) 0.9217(3) 0.3840(2)
H4 H 0.4716 0.9500 0.3567
H5 H 0.3514 0.9839 0.4001
C5 C 0.4484(3) 0.8619(3) 0.4579(2)
C6 C 0.4510(3) 0.7673(3) 0.5642(2)
C7 C 0.4096(4) 0.7011(4) 0.6318(2)
H6 H 0.4818 0.6764 0.6657
H7 H 0.3630 0.6388 0.6100
H8 H 0.3568 0.7446 0.6640
C8 C 0.9253(4) 0.9588(4) 0.6501(3)
H10 H 0.8823 0.9235 0.6923
C9 C 0.9584(3) 0.8777(3) 0.5904(2)
C10 C 0.9486(3) 0.7483(3) 0.5066(2)
C11 C 0.9015(3) 0.6603(3) 0.4520(2)
H12 H 0.9721 0.6285 0.4262
H13 H 0.8446 0.6915 0.4089
C12 C 0.8356(3) 0.5725(3) 0.4923(2)
C13 C 0.7122(3) 0.4907(3) 0.5642(2)
C14 C 0.6139(4) 0.4662(4) 0.6191(3)
H14 H 0.6131 0.3889 0.6302
H15 H 0.5334 0.4881 0.5935
H16 H 0.6305 0.5057 0.6696
Zn3 Zn 0.22697(4) 0.76461(4) 0.09663(2)
Zn5 Zn 0.78753(4) 0.25741(3) 0.53838(2)
N14 N 0.2262(3) 0.5831(3) 0.47387(18)
N15 N 0.7411(3) 0.7154(3) 0.71580(18)
Zn2 Zn 0.28753(4) 0.24259(3) 0.03838(2)
N10_2 N 0.2626(3) 0.2807(3) 0.15324(17)
N11_2 N 0.1730(3) 0.3602(3) 0.25302(18)
N12_2 N 0.2589(3) 0.2846(3) 0.28420(18)
C1_2 C 0.4025(4) 0.1508(3) 0.2317(2)
H1_2 H 0.4187 0.1320 0.2885
H2_2 H 0.4794 0.1748 0.2102
H3_2 H 0.3707 0.0877 0.2016
C2_2 C 0.3095(4) 0.2390(3) 0.2234(2)
C3_2 C 0.1783(3) 0.3539(3) 0.1749(2)
C4_2 C 0.0994(3) 0.4217(3) 0.1160(2)
H4_2 H 0.0284 0.4500 0.1433
H5_2 H 0.1486 0.4839 0.0999
C5_2 C 0.0516(3) 0.3619(3) 0.0421(2)
Zn3_2 Zn 0.27303(4) 0.26461(4) 0.40337(2)
N14_2 N 0.2738(3) 0.0831(3) 0.02613(18)
N9_2 N 0.1267(3) 0.3056(3) 0.99543(17)
C6_2 C 0.0490(3) 0.2673(3) 0.9358(2)
C7_2 C 0.0904(4) 0.2011(4) 0.8682(2)
H6_2 H 0.0182 0.1764 0.8343
H7_2 H 0.1370 0.1388 0.8900
H8_2 H 0.1432 0.2446 0.8360
N13 N 0.4400(3) 0.2912(3) 0.99367(19)
N8_2 N 0.9350(3) 0.3590(3) 0.01449(17)
C11_2 C 0.5985(3) 0.1603(3) 0.0480(2)
H12_2 H 0.5279 0.1285 0.0738
H13_2 H 0.6554 0.1915 0.0911
C12_2 C 0.6644(3) 0.0725(3) 0.0077(2)
Zn1_2 Zn 0.77303(4) 0.23539(4) 0.90337(2)
N1_2 N 0.6191(3) 0.2998(3) 0.94152(19)
N2_2 N 0.4326(3) 0.3754(3) 0.9393(2)
N4_2 N 0.7523(3) 0.0907(3) 0.95512(17)
N7_2 N 0.9343(3) 0.2977(3) 0.94472(17)
C8_2 C 0.5747(4) 0.4588(4) 0.8499(3)
H9_2 H 0.4994 0.4932 0.8260
H10_2 H 0.6177 0.4235 0.8077
H11 H 0.6287 0.5132 0.8765
C9_2 C 0.5416(3) 0.3777(3) 0.9096(2)
C10_2 C 0.5514(3) 0.2483(3) 0.9934(2)
H16_2 H 0.8695 0.0057 0.8304
N15_2 N 0.7589(3) 0.2154(3) 0.78420(18)
N6_2 N 0.7262(3) 0.9169(3) 0.97387(18)
C13_2 C 0.7878(3) 0.9907(3) 0.9358(2)
C14_2 C 0.8861(4) 0.9662(4) 0.8809(3)
H14_2 H 0.8869 0.8889 0.8698
H15_2 H 0.9666 0.9881 0.9065
Zn5_2 Zn 0.71247(4) 0.75741(3) 0.96162(2)
N1_3 N 0.1191(3) 0.2002(3) 0.44152(19)
N4_3 N 0.2523(3) 0.4093(3) 0.45512(17)
N5_2 N 0.1458(3) 0.5301(3) 0.52133(17)
N7_3 N 0.4343(3) 0.2023(3) 0.44472(17)
N8_3 N 0.4350(3) 0.1410(3) 0.51449(17)
N9_3 N 0.6267(3) 0.1944(3) 0.49543(17)
N10_3 N 0.7626(3) 0.2193(3) 0.65324(17)
N11_3 N 0.6730(3) 0.1398(3) 0.75302(18)
C1_3 C 0.9025(4) 0.3492(3) 0.7317(2)
H1_3 H 0.9187 0.3680 0.7885
H2_3 H 0.9794 0.3252 0.7102
H3_3 H 0.8707 0.4123 0.7016
C2_3 C 0.8095(4) 0.2610(3) 0.7234(2)
C3_3 C 0.6783(3) 0.1461(3) 0.6749(2)
C4_3 C 0.5994(3) 0.0783(3) 0.6160(2)
H4_3 H 0.5284 0.0500 0.6433
H5_3 H 0.6486 0.0161 0.5999
C5_3 C 0.5516(3) 0.1381(3) 0.5421(2)
C6_3 C 0.5490(3) 0.2327(3) 0.4358(2)
C7_3 C 0.5904(4) 0.2989(4) 0.3682(2)
H6_3 H 0.5182 0.3236 0.3343
H7_3 H 0.6370 0.3612 0.3900
H8_3 H 0.6432 0.2554 0.3360
C8_3 C 0.0747(4) 0.0412(4) 0.3499(3)
H10_3 H 0.1177 0.0765 0.3077
C9_3 C 0.0416(3) 0.1223(3) 0.4096(2)
C10_3 C 0.0514(3) 0.2517(3) 0.4934(2)
C11_3 C 0.0985(3) 0.3397(3) 0.5480(2)
H12_3 H 0.0279 0.3715 0.5738
H13_3 H 0.1554 0.3085 0.5911
C12_3 C 0.1644(3) 0.4275(3) 0.5077(2)
C13_3 C 0.2878(3) 0.5093(3) 0.4358(2)
C14_3 C 0.3861(4) 0.5338(4) 0.3809(3)
H14_3 H 0.3869 0.6111 0.3698
H15_3 H 0.4666 0.5119 0.4065
H16_3 H 0.3695 0.4943 0.3304
N13_2 N 0.9400(3) 0.2088(3) 0.49367(19)
N2_3 N 0.9326(3) 0.1246(3) 0.4393(2)
H9_3 H 0.9994 0.0068 0.3260
C13_4 C 0.2122(3) 0.0093(3) 0.0642(2)
C14_4 C 0.1139(4) 0.0338(4) 0.1191(3)
H14_4 H 0.1131 0.1111 0.1302
H15_4 H 0.0334 0.0119 0.0935
N1_4 N 0.3809(3) 0.7002(3) 0.05848(19)
N2_4 N 0.5674(3) 0.6246(3) 0.0607(2)
N3_2 N 0.5600(3) 0.7088(3) 0.00633(19)
N4_4 N 0.2477(3) 0.9093(3) 0.04488(17)
N7_4 N 0.0657(3) 0.7023(3) 0.05528(17)
C8_4 C 0.4253(4) 0.5412(4) 0.1501(3)
H9_4 H 0.5006 0.5068 0.1740
H10_4 H 0.3823 0.5765 0.1923
H11_2 H 0.3713 0.4868 0.1235
C9_4 C 0.4584(3) 0.6223(3) 0.0904(2)
C10_4 C 0.4486(3) 0.7517(3) 0.0066(2)
H16_4 H 0.1305 0.9943 0.1696
N8_4 N 0.0650(3) 0.6410(3) 0.98551(17)
C11_4 C 0.4015(3) 0.8397(3) 0.9520(2)
H12_4 H 0.4721 0.8715 0.9262
H13_4 H 0.3446 0.8085 0.9089
C12_4 C 0.3356(3) 0.9275(3) 0.9923(2)
N9_4 N 0.8733(3) 0.6944(3) 0.00457(17)
C6_4 C 0.9510(3) 0.7327(3) 0.0642(2)
C7_4 C 0.9096(4) 0.7989(4) 0.1318(2)
H6_4 H 0.9818 0.8236 0.1657
H7_4 H 0.8630 0.8612 0.1100
H8_4 H 0.8568 0.7554 0.1640
N10_4 N 0.7374(3) 0.7193(3) 0.84676(17)
N11_4 N 0.8270(3) 0.6398(3) 0.74698(18)
C1_4 C 0.5975(4) 0.8492(3) 0.7683(2)
H1_4 H 0.5813 0.8680 0.7115
H2_4 H 0.5206 0.8252 0.7898
H3_4 H 0.6293 0.9123 0.7984
C2_4 C 0.6905(4) 0.7610(3) 0.7766(2)
C3_4 C 0.8217(3) 0.6461(3) 0.8251(2)
C4_4 C 0.9006(3) 0.5783(3) 0.8840(2)
H4_4 H 0.9716 0.5500 0.8567
H5_4 H 0.8514 0.5161 0.9001
C5_4 C 0.9484(3) 0.6381(3) 0.9579(2)
H11_3 H 0.8713 0.0132 0.6235
N5_3 N 0.6458(3) 0.9699(3) 0.02133(17)
H11_4 H 0.1287 0.9868 0.3765
N5_4 N 0.3542(3) 0.0301(3) 0.97867(17)
loop_
_geom_bond_atom_site_label_1
_geom_bond_atom_site_label_2
_geom_bond_site_symmetry_1
_geom_bond_site_symmetry_2
N2 N3 1_555 1_555
Zn4 N3 1_555 1_555
Zn1 N1 1_555 1_555
Zn4 N9 1_555 1_555
N1 C9 1_555 1_555
N4 Zn1 1_555 1_555
N5 N6 1_555 1_555
N6 C13 1_555 1_555
N7 Zn1 1_555 1_555
N8 N7 1_555 1_555
N9 C5 1_555 1_555
N10 Zn4 1_555 1_555
N11 N12 1_555 1_555
N12 C2 1_555 1_555
C1 H1 1_555 1_555
H2 C1 1_555 1_555
H3 C1 1_555 1_555
C2 N10 1_555 1_555
C3 N10 1_555 1_555
C4 C3 1_555 1_555
H4 C4 1_555 1_555
H5 C4 1_555 1_555
C5 N8 1_555 1_555
C6 N7 1_555 1_555
C7 C6 1_555 1_555
H6 C7 1_555 1_555
H7 C7 1_555 1_555
H8 C7 1_555 1_555
H10 C8 1_555 1_555
C10 N1 1_555 1_555
C11 C10 1_555 1_555
H12 C11 1_555 1_555
H13 C11 1_555 1_555
C12 N4 1_555 1_555
C13 N4 1_555 1_555
C14 C13 1_555 1_555
H14 C14 1_555 1_555
H15 C14 1_555 1_555
H16 C14 1_555 1_555
Zn3 N12 1_555 1_555
Zn5 N6 1_555 1_555
N14 Zn4 1_555 1_555
N15 Zn1 1_555 1_555
N5 C12 1_555 1_555
N9 C6 1_555 1_555
N11 C3 1_555 1_555
C1 C2 1_555 1_555
C4 C5 1_555 1_555
C8 C9 1_555 1_555
C11 C12 1_555 1_555
N10_2 Zn2 1_555 1_555
N11_2 N12_2 1_555 1_555
N12_2 C2_2 1_555 1_555
C1_2 H1_2 1_555 1_555
H2_2 C1_2 1_555 1_555
H3_2 C1_2 1_555 1_555
C2_2 N10_2 1_555 1_555
C3_2 N10_2 1_555 1_555
C4_2 C3_2 1_555 1_555
H4_2 C4_2 1_555 1_555
H5_2 C4_2 1_555 1_555
Zn3_2 N12_2 1_555 1_555
N14_2 Zn2 1_555 1_555
N11_2 C3_2 1_555 1_555
C1_2 C2_2 1_555 1_555
C4_2 C5_2 1_555 1_555
C7_2 C6_2 1_555 1_555
H6_2 C7_2 1_555 1_555
H7_2 C7_2 1_555 1_555
H8_2 C7_2 1_555 1_555
N9_2 C6_2 1_555 1_555
H12_2 C11_2 1_555 1_555
H13_2 C11_2 1_555 1_555
C11_2 C12_2 1_555 1_555
Zn1_2 N1_2 1_555 1_555
N1_2 C9_2 1_555 1_555
N2_2 N13 1_555 1_555
N13 C10_2 1_555 1_555
N4_2 Zn1_2 1_555 1_555
N7_2 Zn1_2 1_555 1_555
C8_2 H9_2 1_555 1_555
H10_2 C8_2 1_555 1_555
H11 C8_2 1_555 1_555
C9_2 N2_2 1_555 1_555
C10_2 N1_2 1_555 1_555
N15_2 Zn1_2 1_555 1_555
C8_2 C9_2 1_555 1_555
N6_2 C13_2 1_555 1_555
C14_2 C13_2 1_555 1_555
H14_2 C14_2 1_555 1_555
H15_2 C14_2 1_555 1_555
Zn5_2 N6_2 1_555 1_555
Zn3_2 N1_3 1_555 1_555
Zn5 N9_3 1_555 1_555
N1_3 C9_3 1_555 1_555
N4_3 Zn3_2 1_555 1_555
N5_2 N14 1_555 1_555
N14 C13_3 1_555 1_555
N7_3 Zn3_2 1_555 1_555
N8_3 N7_3 1_555 1_555
N9_3 C5_3 1_555 1_555
N10_3 Zn5 1_555 1_555
N11_3 N15_2 1_555 1_555
N15_2 C2_3 1_555 1_555
C1_3 H1_3 1_555 1_555
H2_3 C1_3 1_555 1_555
H3_3 C1_3 1_555 1_555
C2_3 N10_3 1_555 1_555
C3_3 N10_3 1_555 1_555
C4_3 C3_3 1_555 1_555
H4_3 C4_3 1_555 1_555
H5_3 C4_3 1_555 1_555
C5_3 N8_3 1_555 1_555
C6_3 N7_3 1_555 1_555
C7_3 C6_3 1_555 1_555
H6_3 C7_3 1_555 1_555
H7_3 C7_3 1_555 1_555
H8_3 C7_3 1_555 1_555
H10_3 C8_3 1_555 1_555
C10_3 N1_3 1_555 1_555
C11_3 C10_3 1_555 1_555
H12_3 C11_3 1_555 1_555
H13_3 C11_3 1_555 1_555
C12_3 N4_3 1_555 1_555
C13_3 N4_3 1_555 1_555
C14_3 C13_3 1_555 1_555
H14_3 C14_3 1_555 1_555
H15_3 C14_3 1_555 1_555
H16_3 C14_3 1_555 1_555
N13_2 Zn5 1_555 1_555
N5_2 C12_3 1_555 1_555
N9_3 C6_3 1_555 1_555
N11_3 C3_3 1_555 1_555
C1_3 C2_3 1_555 1_555
C4_3 C5_3 1_555 1_555
C8_3 C9_3 1_555 1_555
C11_3 C12_3 1_555 1_555
N2_3 N13_2 1_555 1_555
N14_2 C13_4 1_555 1_555
C14_4 C13_4 1_555 1_555
H14_4 C14_4 1_555 1_555
H15_4 C14_4 1_555 1_555
Zn3 N1_4 1_555 1_555
N1_4 C9_4 1_555 1_555
N2_4 N3_2 1_555 1_555
N3_2 C10_4 1_555 1_555
N4_4 Zn3 1_555 1_555
N7_4 Zn3 1_555 1_555
C8_4 H9_4 1_555 1_555
H10_4 C8_4 1_555 1_555
H11_2 C8_4 1_555 1_555
C9_4 N2_4 1_555 1_555
C10_4 N1_4 1_555 1_555
C8_4 C9_4 1_555 1_555
H12_4 C11_4 1_555 1_555
H13_4 C11_4 1_555 1_555
C11_4 C12_4 1_555 1_555
C7_4 C6_4 1_555 1_555
H6_4 C7_4 1_555 1_555
H7_4 C7_4 1_555 1_555
H8_4 C7_4 1_555 1_555
N9_4 C6_4 1_555 1_555
N10_4 Zn5_2 1_555 1_555
N11_4 N15 1_555 1_555
N15 C2_4 1_555 1_555
C1_4 H1_4 1_555 1_555
H2_4 C1_4 1_555 1_555
H3_4 C1_4 1_555 1_555
C2_4 N10_4 1_555 1_555
C3_4 N10_4 1_555 1_555
C4_4 C3_4 1_555 1_555
H4_4 C4_4 1_555 1_555
H5_4 C4_4 1_555 1_555
N11_4 C3_4 1_555 1_555
C1_4 C2_4 1_555 1_555
C4_4 C5_4 1_555 1_555

#END
