
###############################################################################
#
# This file contains modified crystal structure data generated from the
# MOF subset of the Cambridge Structural Database (CSD) v543 
# hosted by the Cambridge Crystallographic Data Centre (CCDC).
#
# This work is licensed under the Creative Commons
# Attribution-NonCommercial-ShareAlike 4.0 International License.
# To view a copy of this license, visit
# http://creativecommons.org/licenses/by-nc-sa/4.0/
# or send a letter to
# Creative Commons, PO Box 1866, Mountain View, CA 94042, USA.
#
# CIF created using the CSD Python API on 29 September 2022
# The structure has been converted into the P1 space group
# The structure has a 3D framework
# The original CSD entry ZAWCIM is in the monoclinic crystal system
# The framework has been calculated to contain at least 10.0% void space
# The void calculation uses a probe of radius 1.32A, grid spacing 0.4
#
###############################################################################

data_ZAWCIM
_chemical_formula_moiety         '(C56 H64 N48 Zn8)n'
_symmetry_cell_setting           triclinic
_symmetry_space_group_name_H-M   'P 1'
_symmetry_Int_Tables_number      1
_space_group_name_Hall           'P 1'
loop_
_symmetry_equiv_pos_site_id
_symmetry_equiv_pos_as_xyz
1 x,y,z
_cell_length_a                   10.757(8)
_cell_length_b                   12.929(7)
_cell_length_c                   16.876(10)
_cell_angle_alpha                90
_cell_angle_beta                 96.225(17)
_cell_angle_gamma                90
_cell_volume                     2333.23
loop_
_atom_site_label
_atom_site_type_symbol
_atom_site_fract_x
_atom_site_fract_y
_atom_site_fract_z
N2 N 0.0584(9) 0.8565(7) 0.5644(6)
N3 N 0.0472(7) 0.7785(6) 0.5067(5)
H9 H 0.0006 0.9583 0.6855
Zn4 Zn 0.19737(10) 0.74077(8) 0.45889(7)
Zn1 Zn 0.71838(10) 0.71716(9) 0.60107(7)
N1 N 0.8724(7) 0.7787(6) 0.5660(5)
N4 N 0.7432(8) 0.5773(6) 0.5515(5)
N5 N 0.8560(8) 0.4664(6) 0.4882(5)
N6 N 0.7839(8) 0.4124(6) 0.5373(5)
N7 N 0.5579(7) 0.7793(6) 0.5564(5)
N8 N 0.5579(8) 0.8474(6) 0.4913(5)
N9 N 0.3612(7) 0.7962(6) 0.5054(5)
N10 N 0.2200(7) 0.7887(6) 0.3480(4)
N11 N 0.3155(8) 0.8684(7) 0.2541(5)
N12 N 0.2273(8) 0.7978(6) 0.2192(5)
C1 C 0.0796(11) 0.6676(8) 0.2641(7)
H1 H 0.0614 0.6535 0.2070
H2 H 0.0026 0.6887 0.2859
H3 H 0.1129 0.6051 0.2915
C2 C 0.1740(9) 0.7525(7) 0.2764(6)
C3 C 0.3091(10) 0.8586(8) 0.3304(7)
C4 C 0.3908(10) 0.9193(8) 0.3926(7)
H4 H 0.3423 0.9779 0.4111
H5 H 0.4630 0.9480 0.3682
C5 C 0.4385(10) 0.8527(7) 0.4638(6)
C6 C 0.4413(10) 0.7495(7) 0.5621(6)
C7 C 0.3989(11) 0.6790(10) 0.6216(7)
H6 H 0.4711 0.6549 0.6572
H7 H 0.3564 0.6196 0.5947
H8 H 0.3408 0.7154 0.6528
C8 C 0.9238(13) 0.9236(11) 0.6629(9)
H10 H 0.8898 0.8826 0.7043
H11 H 0.8623 0.9756 0.6424
C9 C 0.9525(10) 0.8540(8) 0.5964(7)
C10 C 0.9350(9) 0.7354(7) 0.5102(6)
C11 C 0.8840(9) 0.6482(7) 0.4570(5)
H12 H 0.8203 0.6764 0.4159
H13 H 0.9528 0.6194 0.4292
C12 C 0.8277(10) 0.5646(8) 0.4992(6)
C13 C 0.7165(9) 0.4808(8) 0.5735(6)
C14 C 0.6241(11) 0.4503(8) 0.6283(8)
H14 H 0.6268 0.3751 0.6359
H15 H 0.5402 0.4709 0.6054
H16 H 0.6444 0.4847 0.6798
Zn3 Zn 0.21838(10) 0.78284(9) 0.10107(7)
Zn5 Zn 0.80263(10) 0.25923(8) 0.54111(7)
N14 N 0.2161(8) 0.5876(6) 0.4627(5)
N15 N 0.7273(8) 0.7022(6) 0.7192(5)
Zn2 Zn 0.30263(10) 0.24077(8) 0.04111(7)
N10_2 N 0.2800(7) 0.2887(6) 0.1520(4)
N11_2 N 0.1845(8) 0.3684(7) 0.2459(5)
N12_2 N 0.2727(8) 0.2978(6) 0.2808(5)
C1_2 C 0.4204(11) 0.1676(8) 0.2359(7)
H1_2 H 0.4386 0.1535 0.2930
H2_2 H 0.4974 0.1887 0.2141
H3_2 H 0.3871 0.1051 0.2085
C2_2 C 0.3260(9) 0.2525(7) 0.2236(6)
C3_2 C 0.1909(10) 0.3586(8) 0.1696(7)
C4_2 C 0.1092(10) 0.4193(8) 0.1074(7)
H4_2 H 0.1577 0.4779 0.0889
H5_2 H 0.0370 0.4480 0.1318
C5_2 C 0.0615(10) 0.3527(7) 0.0362(6)
Zn3_2 Zn 0.28162(10) 0.28284(9) 0.39893(7)
N14_2 N 0.2839(8) 0.0876(6) 0.0373(5)
N9_2 N 0.1388(7) 0.2962(6) 0.9946(5)
C6_2 C 0.0587(10) 0.2495(7) 0.9379(6)
C7_2 C 0.1011(11) 0.1790(10) 0.8784(7)
H6_2 H 0.0289 0.1549 0.8428
H7_2 H 0.1436 0.1196 0.9053
H8_2 H 0.1592 0.2154 0.8472
N13 N 0.4528(7) 0.2785(6) 0.9933(5)
N8_2 N 0.9421(8) 0.3474(6) 0.0087(5)
C11_2 C 0.6160(9) 0.1482(7) 0.0430(5)
H12_2 H 0.6797 0.1764 0.0841
H13_2 H 0.5472 0.1194 0.0708
C12_2 C 0.6723(10) 0.0646(8) 0.0008(6)
Zn1_2 Zn 0.78162(10) 0.21716(9) 0.89893(7)
N1_2 N 0.6276(7) 0.2787(6) 0.9340(5)
N2_2 N 0.4416(9) 0.3565(7) 0.9356(6)
N4_2 N 0.7568(8) 0.0773(6) 0.9485(5)
N7_2 N 0.9421(7) 0.2793(6) 0.9436(5)
C8_2 C 0.5762(13) 0.4236(11) 0.8371(9)
H9_2 H 0.4994 0.4583 0.8145
H10_2 H 0.6102 0.3826 0.7957
H11_2 H 0.6377 0.4756 0.8576
C9_2 C 0.5475(10) 0.3540(8) 0.9036(7)
C10_2 C 0.5650(9) 0.2354(7) 0.9898(6)
N15_2 N 0.7727(8) 0.2022(6) 0.7808(5)
N6_2 N 0.7161(8) 0.9124(6) 0.9627(5)
C13_2 C 0.7835(9) 0.9808(8) 0.9265(6)
C14_2 C 0.8759(11) 0.9503(8) 0.8717(8)
H14_2 H 0.8732 0.8751 0.8641
H15_2 H 0.9598 0.9709 0.8946
H16_2 H 0.8556 0.9847 0.8202
Zn5_2 Zn 0.69737(10) 0.75923(8) 0.95889(7)
N1_3 N 0.1276(7) 0.2213(6) 0.4340(5)
N4_3 N 0.2568(8) 0.4227(6) 0.4485(5)
N5_2 N 0.1440(8) 0.5336(6) 0.5118(5)
N7_3 N 0.4421(7) 0.2207(6) 0.4436(5)
N8_3 N 0.4421(8) 0.1526(6) 0.5087(5)
N9_3 N 0.6388(7) 0.2038(6) 0.4946(5)
N10_3 N 0.7800(7) 0.2113(6) 0.6520(4)
N11_3 N 0.6845(8) 0.1316(7) 0.7459(5)
C1_3 C 0.9204(11) 0.3324(8) 0.7359(7)
H1_3 H 0.9386 0.3465 0.7930
H2_3 H 0.9974 0.3113 0.7141
H3_3 H 0.8871 0.3949 0.7085
C2_3 C 0.8260(9) 0.2475(7) 0.7236(6)
C3_3 C 0.6909(10) 0.1414(8) 0.6696(7)
C4_3 C 0.6092(10) 0.0807(8) 0.6074(7)
H4_3 H 0.6577 0.0221 0.5889
H5_3 H 0.5370 0.0520 0.6318
C5_3 C 0.5615(10) 0.1473(7) 0.5362(6)
C6_3 C 0.5587(10) 0.2505(7) 0.4379(6)
C7_3 C 0.6011(11) 0.3210(10) 0.3784(7)
H6_3 H 0.5289 0.3451 0.3428
H7_3 H 0.6436 0.3804 0.4053
H8_3 H 0.6592 0.2846 0.3472
C8_3 C 0.0762(13) 0.0764(11) 0.3371(9)
H10_3 H 0.1102 0.1174 0.2957
H11_3 H 0.1377 0.0244 0.3576
C9_3 C 0.0475(10) 0.1460(8) 0.4036(7)
C10_3 C 0.0650(9) 0.2646(7) 0.4898(6)
C11_3 C 0.1160(9) 0.3518(7) 0.5430(5)
H12_3 H 0.1797 0.3236 0.5841
H13_3 H 0.0472 0.3806 0.5708
C12_3 C 0.1723(10) 0.4354(8) 0.5008(6)
C13_3 C 0.2835(9) 0.5192(8) 0.4265(6)
C14_3 C 0.3759(11) 0.5497(8) 0.3717(8)
H14_3 H 0.3732 0.6249 0.3641
H15_3 H 0.4598 0.5291 0.3946
H16_3 H 0.3556 0.5153 0.3202
N13_2 N 0.9528(7) 0.2215(6) 0.4933(5)
N2_3 N 0.9416(9) 0.1435(7) 0.4356(6)
H9_3 H 0.9994 0.0417 0.3145
C13_4 C 0.2165(9) 0.0192(8) 0.0735(6)
C14_4 C 0.1241(11) 0.0497(8) 0.1283(8)
H14_4 H 0.1268 0.1249 0.1359
H15_4 H 0.0402 0.0291 0.1054
H16_4 H 0.1444 0.0153 0.1798
N1_4 N 0.3724(7) 0.7213(6) 0.0660(5)
N2_4 N 0.5584(9) 0.6435(7) 0.0644(6)
N3_2 N 0.5472(7) 0.7215(6) 0.0067(5)
N4_4 N 0.2432(8) 0.9227(6) 0.0515(5)
N7_4 N 0.0579(7) 0.7207(6) 0.0564(5)
C8_4 C 0.4238(13) 0.5764(11) 0.1629(9)
H9_4 H 0.5006 0.5417 0.1855
H10_4 H 0.3898 0.6174 0.2043
H11_4 H 0.3623 0.5244 0.1424
C9_4 C 0.4525(10) 0.6460(8) 0.0964(7)
C10_4 C 0.4350(9) 0.7646(7) 0.0102(6)
N8_4 N 0.0579(8) 0.6526(6) 0.9913(5)
C11_4 C 0.3840(9) 0.8518(7) 0.9570(5)
H12_4 H 0.3203 0.8236 0.9159
H13_4 H 0.4528 0.8806 0.9292
C12_4 C 0.3277(10) 0.9354(8) 0.9992(6)
N9_4 N 0.8612(7) 0.7038(6) 0.0054(5)
C6_4 C 0.9413(10) 0.7505(7) 0.0621(6)
C7_4 C 0.8989(11) 0.8210(10) 0.1216(7)
H6_4 H 0.9711 0.8451 0.1572
H7_4 H 0.8564 0.8804 0.0947
H8_4 H 0.8408 0.7846 0.1528
N10_4 N 0.7200(7) 0.7113(6) 0.8480(4)
N11_4 N 0.8155(8) 0.6316(7) 0.7541(5)
C1_4 C 0.5796(11) 0.8324(8) 0.7641(7)
H1_4 H 0.5614 0.8465 0.7070
H2_4 H 0.5026 0.8113 0.7859
H3_4 H 0.6129 0.8949 0.7915
C2_4 C 0.6740(9) 0.7475(7) 0.7764(6)
C3_4 C 0.8091(10) 0.6414(8) 0.8304(7)
C4_4 C 0.8908(10) 0.5807(8) 0.8926(7)
H4_4 H 0.8423 0.5221 0.9111
H5_4 H 0.9630 0.5520 0.8682
C5_4 C 0.9385(10) 0.6473(7) 0.9638(6)
N5_3 N 0.6440(8) 0.9664(6) 0.0118(5)
N5_4 N 0.3560(8) 0.0336(6) 0.9882(5)
loop_
_geom_bond_atom_site_label_1
_geom_bond_atom_site_label_2
_geom_bond_site_symmetry_1
_geom_bond_site_symmetry_2
N2 N3 1_555 1_555
Zn4 N3 1_555 1_555
Zn1 N1 1_555 1_555
Zn4 N9 1_555 1_555
N1 C9 1_555 1_555
N4 Zn1 1_555 1_555
N5 N6 1_555 1_555
N6 C13 1_555 1_555
N7 Zn1 1_555 1_555
N8 N7 1_555 1_555
N9 C5 1_555 1_555
N10 Zn4 1_555 1_555
N11 N12 1_555 1_555
N12 C2 1_555 1_555
C1 H1 1_555 1_555
H2 C1 1_555 1_555
H3 C1 1_555 1_555
C2 N10 1_555 1_555
C3 N10 1_555 1_555
C4 C3 1_555 1_555
H4 C4 1_555 1_555
H5 C4 1_555 1_555
C5 N8 1_555 1_555
C6 N7 1_555 1_555
C7 C6 1_555 1_555
H6 C7 1_555 1_555
H7 C7 1_555 1_555
H8 C7 1_555 1_555
H10 C8 1_555 1_555
H11 C8 1_555 1_555
C10 N1 1_555 1_555
C11 C10 1_555 1_555
H12 C11 1_555 1_555
H13 C11 1_555 1_555
C12 N4 1_555 1_555
C13 N4 1_555 1_555
C14 C13 1_555 1_555
H14 C14 1_555 1_555
H15 C14 1_555 1_555
H16 C14 1_555 1_555
Zn3 N12 1_555 1_555
Zn5 N6 1_555 1_555
N14 Zn4 1_555 1_555
N15 Zn1 1_555 1_555
N5 C12 1_555 1_555
N9 C6 1_555 1_555
N11 C3 1_555 1_555
C1 C2 1_555 1_555
C4 C5 1_555 1_555
C8 C9 1_555 1_555
C11 C12 1_555 1_555
N10_2 Zn2 1_555 1_555
N11_2 N12_2 1_555 1_555
N12_2 C2_2 1_555 1_555
C1_2 H1_2 1_555 1_555
H2_2 C1_2 1_555 1_555
H3_2 C1_2 1_555 1_555
C2_2 N10_2 1_555 1_555
C3_2 N10_2 1_555 1_555
C4_2 C3_2 1_555 1_555
H4_2 C4_2 1_555 1_555
H5_2 C4_2 1_555 1_555
Zn3_2 N12_2 1_555 1_555
N14_2 Zn2 1_555 1_555
N11_2 C3_2 1_555 1_555
C1_2 C2_2 1_555 1_555
C4_2 C5_2 1_555 1_555
C7_2 C6_2 1_555 1_555
H6_2 C7_2 1_555 1_555
H7_2 C7_2 1_555 1_555
H8_2 C7_2 1_555 1_555
N9_2 C6_2 1_555 1_555
H12_2 C11_2 1_555 1_555
H13_2 C11_2 1_555 1_555
C11_2 C12_2 1_555 1_555
Zn1_2 N1_2 1_555 1_555
N1_2 C9_2 1_555 1_555
N2_2 N13 1_555 1_555
N13 C10_2 1_555 1_555
N4_2 Zn1_2 1_555 1_555
N7_2 Zn1_2 1_555 1_555
C8_2 H9_2 1_555 1_555
H10_2 C8_2 1_555 1_555
H11_2 C8_2 1_555 1_555
C9_2 N2_2 1_555 1_555
C10_2 N1_2 1_555 1_555
N15_2 Zn1_2 1_555 1_555
C8_2 C9_2 1_555 1_555
N6_2 C13_2 1_555 1_555
C14_2 C13_2 1_555 1_555
H14_2 C14_2 1_555 1_555
H15_2 C14_2 1_555 1_555
H16_2 C14_2 1_555 1_555
Zn5_2 N6_2 1_555 1_555
Zn3_2 N1_3 1_555 1_555
Zn5 N9_3 1_555 1_555
N1_3 C9_3 1_555 1_555
N4_3 Zn3_2 1_555 1_555
N5_2 N14 1_555 1_555
N14 C13_3 1_555 1_555
N7_3 Zn3_2 1_555 1_555
N8_3 N7_3 1_555 1_555
N9_3 C5_3 1_555 1_555
N10_3 Zn5 1_555 1_555
N11_3 N15_2 1_555 1_555
N15_2 C2_3 1_555 1_555
C1_3 H1_3 1_555 1_555
H2_3 C1_3 1_555 1_555
H3_3 C1_3 1_555 1_555
C2_3 N10_3 1_555 1_555
C3_3 N10_3 1_555 1_555
C4_3 C3_3 1_555 1_555
H4_3 C4_3 1_555 1_555
H5_3 C4_3 1_555 1_555
C5_3 N8_3 1_555 1_555
C6_3 N7_3 1_555 1_555
C7_3 C6_3 1_555 1_555
H6_3 C7_3 1_555 1_555
H7_3 C7_3 1_555 1_555
H8_3 C7_3 1_555 1_555
H10_3 C8_3 1_555 1_555
H11_3 C8_3 1_555 1_555
C10_3 N1_3 1_555 1_555
C11_3 C10_3 1_555 1_555
H12_3 C11_3 1_555 1_555
H13_3 C11_3 1_555 1_555
C12_3 N4_3 1_555 1_555
C13_3 N4_3 1_555 1_555
C14_3 C13_3 1_555 1_555
H14_3 C14_3 1_555 1_555
H15_3 C14_3 1_555 1_555
H16_3 C14_3 1_555 1_555
N13_2 Zn5 1_555 1_555
N5_2 C12_3 1_555 1_555
N9_3 C6_3 1_555 1_555
N11_3 C3_3 1_555 1_555
C1_3 C2_3 1_555 1_555
C4_3 C5_3 1_555 1_555
C8_3 C9_3 1_555 1_555
C11_3 C12_3 1_555 1_555
N2_3 N13_2 1_555 1_555
N14_2 C13_4 1_555 1_555
C14_4 C13_4 1_555 1_555
H14_4 C14_4 1_555 1_555
H15_4 C14_4 1_555 1_555
H16_4 C14_4 1_555 1_555
Zn3 N1_4 1_555 1_555
N1_4 C9_4 1_555 1_555
N2_4 N3_2 1_555 1_555
N3_2 C10_4 1_555 1_555
N4_4 Zn3 1_555 1_555
N7_4 Zn3 1_555 1_555
C8_4 H9_4 1_555 1_555
H10_4 C8_4 1_555 1_555
H11_4 C8_4 1_555 1_555
C9_4 N2_4 1_555 1_555
C10_4 N1_4 1_555 1_555
C8_4 C9_4 1_555 1_555
H12_4 C11_4 1_555 1_555
H13_4 C11_4 1_555 1_555
C11_4 C12_4 1_555 1_555
C7_4 C6_4 1_555 1_555
H6_4 C7_4 1_555 1_555
H7_4 C7_4 1_555 1_555
H8_4 C7_4 1_555 1_555
N9_4 C6_4 1_555 1_555
N10_4 Zn5_2 1_555 1_555
N11_4 N15 1_555 1_555
N15 C2_4 1_555 1_555
C1_4 H1_4 1_555 1_555
H2_4 C1_4 1_555 1_555
H3_4 C1_4 1_555 1_555
C2_4 N10_4 1_555 1_555
C3_4 N10_4 1_555 1_555
C4_4 C3_4 1_555 1_555
H4_4 C4_4 1_555 1_555
H5_4 C4_4 1_555 1_555
N11_4 C3_4 1_555 1_555
C1_4 C2_4 1_555 1_555
C4_4 C5_4 1_555 1_555

#END
