
###############################################################################
#
# This file contains modified crystal structure data generated from the
# MOF subset of the Cambridge Structural Database (CSD) v543 
# hosted by the Cambridge Crystallographic Data Centre (CCDC).
#
# This work is licensed under the Creative Commons
# Attribution-NonCommercial-ShareAlike 4.0 International License.
# To view a copy of this license, visit
# http://creativecommons.org/licenses/by-nc-sa/4.0/
# or send a letter to
# Creative Commons, PO Box 1866, Mountain View, CA 94042, USA.
#
# CIF created using the CSD Python API on 29 September 2022
# The structure has been converted into the P1 space group
# The structure has a 3D framework
# The original CSD entry ZAWCAE is in the monoclinic crystal system
# The framework has been calculated to contain at least 10.0% void space
# The void calculation uses a probe of radius 1.32A, grid spacing 0.4
#
###############################################################################

data_ZAWCAE
_chemical_formula_moiety         '(C56 H66 N48 Zn8)n'
_symmetry_cell_setting           triclinic
_symmetry_space_group_name_H-M   'P 1'
_symmetry_Int_Tables_number      1
_space_group_name_Hall           'P 1'
loop_
_symmetry_equiv_pos_site_id
_symmetry_equiv_pos_as_xyz
1 x,y,z
_cell_length_a                   10.905(2)
_cell_length_b                   12.529(2)
_cell_length_c                   16.688(3)
_cell_angle_alpha                90
_cell_angle_beta                 95.229(4)
_cell_angle_gamma                90
_cell_volume                     2270.57
loop_
_atom_site_label
_atom_site_type_symbol
_atom_site_fract_x
_atom_site_fract_y
_atom_site_fract_z
N2 N 0.0654(4) 0.8723(4) 0.5617(3)
N3 N 0.0576(4) 0.7886(4) 0.5069(3)
H9 H 0.0000 0.9810 0.6814
Zn4 Zn 0.20926(5) 0.74294(5) 0.46196(3)
Zn1 Zn 0.72562(5) 0.73208(5) 0.59642(3)
N1 N 0.8794(4) 0.7959(4) 0.5603(3)
N4 N 0.7466(4) 0.5876(3) 0.5456(2)
N5 N 0.8548(4) 0.4688(4) 0.4810(3)
N6 N 0.7758(4) 0.4157(4) 0.5277(3)
N7 N 0.5651(4) 0.7941(4) 0.5543(2)
N8 N 0.5618(4) 0.8577(3) 0.4852(2)
N9 N 0.3712(4) 0.8040(3) 0.5053(2)
N10 N 0.2325(4) 0.7830(4) 0.3473(3)
N11 N 0.3202(4) 0.8637(4) 0.2478(3)
N12 N 0.2365(4) 0.7881(4) 0.2157(3)
C1 C 0.0948(5) 0.6528(5) 0.2676(3)
H1 H 0.0817 0.6314 0.2110
H2 H 0.0167 0.6772 0.2860
H3 H 0.1256 0.5917 0.3002
C2 C 0.1864(5) 0.7410(4) 0.2762(3)
C3 C 0.3151(5) 0.8571(4) 0.3262(3)
C4 C 0.3952(5) 0.9231(4) 0.3861(3)
H4 H 0.4653 0.9521 0.3593
H5 H 0.3466 0.9842 0.4035
C5 C 0.4440(4) 0.8611(4) 0.4587(3)
C6 C 0.4503(5) 0.7631(4) 0.5634(3)
C7 C 0.4121(5) 0.6958(5) 0.6304(3)
H6 H 0.4854 0.6703 0.6632
H7 H 0.3645 0.6346 0.6081
H8 H 0.3612 0.7382 0.6640
C8 C 0.9246(6) 0.9536(6) 0.6519(5)
H9_2 H 1.0000 0.9810 0.6814
H10 H 0.8730 0.9197 0.6898
C9 C 0.9572(5) 0.8743(5) 0.5917(3)
C10 C 0.9463(5) 0.7457(4) 0.5076(3)
C11 C 0.8994(5) 0.6570(4) 0.4528(3)
H12 H 0.8421 0.6875 0.4093
H13 H 0.9698 0.6257 0.4275
C12 C 0.8345(4) 0.5698(4) 0.4933(3)
C13 C 0.7127(5) 0.4883(4) 0.5648(3)
C14 C 0.6151(5) 0.4625(5) 0.6192(4)
H14 H 0.6114 0.3850 0.6269
H15 H 0.5353 0.4882 0.5950
H16 H 0.6347 0.4973 0.6714
Zn3 Zn 0.22562(5) 0.76792(5) 0.09642(3)
Zn5 Zn 0.79074(5) 0.25706(5) 0.53804(3)
N14 N 0.2242(4) 0.5843(4) 0.4723(3)
N15 N 0.7365(4) 0.7119(4) 0.7157(3)
Zn2 Zn 0.29074(5) 0.24294(5) 0.03804(3)
N10_2 N 0.2675(4) 0.2830(4) 0.1527(3)
N11_2 N 0.1798(4) 0.3637(4) 0.2522(3)
N12_2 N 0.2635(4) 0.2881(4) 0.2843(3)
C1_2 C 0.4052(5) 0.1528(5) 0.2324(3)
H1_2 H 0.4183 0.1314 0.2890
H2_2 H 0.4833 0.1772 0.2140
H3_2 H 0.3744 0.0917 0.1998
C2_2 C 0.3136(5) 0.2410(4) 0.2238(3)
C3_2 C 0.1849(5) 0.3571(4) 0.1738(3)
C4_2 C 0.1048(5) 0.4231(4) 0.1139(3)
H4_2 H 0.0347 0.4521 0.1407
H5_2 H 0.1534 0.4842 0.0965
C5_2 C 0.0560(4) 0.3611(4) 0.0413(3)
Zn3_2 Zn 0.27438(5) 0.26792(5) 0.40358(3)
N14_2 N 0.2758(4) 0.0843(4) 0.0277(3)
N9_2 N 0.1288(4) 0.3040(3) 0.9947(2)
C6_2 C 0.0497(5) 0.2631(4) 0.9366(3)
C7_2 C 0.0879(5) 0.1958(5) 0.8696(3)
H6_2 H 0.0146 0.1703 0.8368
H7_2 H 0.1355 0.1346 0.8919
H8_2 H 0.1388 0.2382 0.8360
N13 N 0.4424(4) 0.2886(4) 0.9931(3)
N8_2 N 0.9382(4) 0.3577(3) 0.0148(2)
C11_2 C 0.6006(5) 0.1570(4) 0.0472(3)
H12_2 H 0.6579 0.1875 0.0907
H13_2 H 0.5302 0.1257 0.0725
C12_2 C 0.6655(4) 0.0698(4) 0.0067(3)
Zn1_2 Zn 0.77438(5) 0.23208(5) 0.90358(3)
N1_2 N 0.6206(4) 0.2959(4) 0.9397(3)
N2_2 N 0.4346(4) 0.3723(4) 0.9383(3)
N4_2 N 0.7534(4) 0.0876(3) 0.9544(2)
N7_2 N 0.9349(4) 0.2941(4) 0.9457(2)
C8_2 C 0.5754(6) 0.4536(6) 0.8481(5)
H9_3 H 0.5000 0.4810 0.8186
H10_2 H 0.6270 0.4197 0.8102
H11 H 0.6207 0.5128 0.8754
C9_2 C 0.5428(5) 0.3743(5) 0.9083(3)
C10_2 C 0.5537(5) 0.2457(4) 0.9924(3)
N15_2 N 0.7635(4) 0.2119(4) 0.7843(3)
N6_2 N 0.7242(4) 0.9157(4) 0.9723(3)
C13_2 C 0.7873(5) 0.9883(4) 0.9352(3)
C14_2 C 0.8849(5) 0.9625(5) 0.8808(4)
H14_2 H 0.8886 0.8850 0.8731
H15_2 H 0.9647 0.9882 0.9050
H16_2 H 0.8653 0.9973 0.8286
Zn5_2 Zn 0.70926(5) 0.75706(5) 0.96196(3)
N1_3 N 0.1206(4) 0.2041(4) 0.4397(3)
N4_3 N 0.2534(4) 0.4124(3) 0.4544(2)
N5_2 N 0.1452(4) 0.5312(4) 0.5190(3)
N7_3 N 0.4349(4) 0.2059(4) 0.4457(2)
N8_3 N 0.4382(4) 0.1423(3) 0.5148(2)
N9_3 N 0.6288(4) 0.1960(3) 0.4947(2)
N10_3 N 0.7675(4) 0.2170(4) 0.6527(3)
N11_3 N 0.6798(4) 0.1363(4) 0.7522(3)
C1_3 C 0.9052(5) 0.3472(5) 0.7324(3)
H1_3 H 0.9183 0.3686 0.7890
H2_3 H 0.9833 0.3228 0.7140
H3_3 H 0.8744 0.4083 0.6998
C2_3 C 0.8136(5) 0.2590(4) 0.7238(3)
C3_3 C 0.6849(5) 0.1429(4) 0.6738(3)
C4_3 C 0.6048(5) 0.0769(4) 0.6139(3)
H4_3 H 0.5347 0.0479 0.6407
H5_3 H 0.6534 0.0158 0.5965
C5_3 C 0.5560(4) 0.1389(4) 0.5413(3)
C6_3 C 0.5497(5) 0.2369(4) 0.4366(3)
C7_3 C 0.5879(5) 0.3042(5) 0.3696(3)
H6_3 H 0.5146 0.3297 0.3368
H7_3 H 0.6355 0.3654 0.3919
H8_3 H 0.6388 0.2618 0.3360
C8_3 C 0.0754(6) 0.0464(6) 0.3481(5)
H9_4 H 0.0000 0.0190 0.3186
H10_3 H 0.1270 0.0803 0.3102
C9_3 C 0.0428(5) 0.1257(5) 0.4083(3)
C10_3 C 0.0537(5) 0.2543(4) 0.4924(3)
C11_3 C 0.1006(5) 0.3430(4) 0.5472(3)
H12_3 H 0.1579 0.3125 0.5907
H13_3 H 0.0302 0.3743 0.5725
C12_3 C 0.1655(4) 0.4302(4) 0.5067(3)
C13_3 C 0.2873(5) 0.5117(4) 0.4352(3)
C14_3 C 0.3849(5) 0.5375(5) 0.3808(4)
H14_3 H 0.3886 0.6150 0.3731
H15_3 H 0.4647 0.5118 0.4050
H16_3 H 0.3653 0.5027 0.3286
N13_2 N 0.9424(4) 0.2114(4) 0.4931(3)
N2_3 N 0.9346(4) 0.1277(4) 0.4383(3)
H9_5 H 1.0000 0.0190 0.3186
C13_4 C 0.2127(5) 0.0117(4) 0.0648(3)
C14_4 C 0.1151(5) 0.0375(5) 0.1192(4)
H14_4 H 0.1114 0.1150 0.1269
H15_4 H 0.0353 0.0118 0.0950
H16_4 H 0.1347 0.0027 0.1714
N1_4 N 0.3794(4) 0.7041(4) 0.0603(3)
N2_4 N 0.5654(4) 0.6277(4) 0.0617(3)
N3_2 N 0.5576(4) 0.7114(4) 0.0069(3)
N4_4 N 0.2466(4) 0.9124(3) 0.0456(2)
N7_4 N 0.0651(4) 0.7059(4) 0.0543(2)
C8_4 C 0.4246(6) 0.5464(6) 0.1519(5)
H9_6 H 0.5000 0.5190 0.1814
H10_4 H 0.3730 0.5803 0.1898
H11_2 H 0.3793 0.4872 0.1246
C9_4 C 0.4572(5) 0.6257(5) 0.0917(3)
C10_4 C 0.4463(5) 0.7543(4) 0.0076(3)
N8_4 N 0.0618(4) 0.6423(3) 0.9852(2)
C11_4 C 0.3994(5) 0.8430(4) 0.9528(3)
H12_4 H 0.3421 0.8125 0.9093
H13_4 H 0.4698 0.8743 0.9275
C12_4 C 0.3345(4) 0.9302(4) 0.9933(3)
N9_4 N 0.8712(4) 0.6960(3) 0.0053(2)
C6_4 C 0.9503(5) 0.7369(4) 0.0634(3)
C7_4 C 0.9121(5) 0.8042(5) 0.1304(3)
H6_4 H 0.9854 0.8297 0.1632
H7_4 H 0.8645 0.8654 0.1081
H8_4 H 0.8612 0.7618 0.1640
N10_4 N 0.7325(4) 0.7170(4) 0.8473(3)
N11_4 N 0.8202(4) 0.6363(4) 0.7478(3)
C1_4 C 0.5948(5) 0.8472(5) 0.7676(3)
H1_4 H 0.5817 0.8686 0.7110
H2_4 H 0.5167 0.8228 0.7860
H3_4 H 0.6256 0.9083 0.8002
C2_4 C 0.6864(5) 0.7590(4) 0.7762(3)
C3_4 C 0.8151(5) 0.6429(4) 0.8262(3)
C4_4 C 0.8952(5) 0.5769(4) 0.8861(3)
H4_4 H 0.9653 0.5479 0.8593
H5_4 H 0.8466 0.5158 0.9035
C5_4 C 0.9440(4) 0.6389(4) 0.9587(3)
H11_3 H 0.8793 0.0128 0.6246
N5_3 N 0.6452(4) 0.9688(4) 0.0190(3)
H11_4 H 0.1207 0.9872 0.3754
N5_4 N 0.3548(4) 0.0312(4) 0.9810(3)
loop_
_geom_bond_atom_site_label_1
_geom_bond_atom_site_label_2
_geom_bond_site_symmetry_1
_geom_bond_site_symmetry_2
N2 N3 1_555 1_555
Zn4 N3 1_555 1_555
Zn1 N1 1_555 1_555
Zn4 N9 1_555 1_555
N1 C9 1_555 1_555
N4 Zn1 1_555 1_555
N5 N6 1_555 1_555
N6 C13 1_555 1_555
N7 Zn1 1_555 1_555
N8 N7 1_555 1_555
N9 C5 1_555 1_555
N10 Zn4 1_555 1_555
N11 N12 1_555 1_555
N12 C2 1_555 1_555
C1 H1 1_555 1_555
H2 C1 1_555 1_555
H3 C1 1_555 1_555
C2 N10 1_555 1_555
C3 N10 1_555 1_555
C4 C3 1_555 1_555
H4 C4 1_555 1_555
H5 C4 1_555 1_555
C5 N8 1_555 1_555
C6 N7 1_555 1_555
C7 C6 1_555 1_555
H6 C7 1_555 1_555
H7 C7 1_555 1_555
H8 C7 1_555 1_555
C8 H9_2 1_555 1_555
H10 C8 1_555 1_555
C10 N1 1_555 1_555
C11 C10 1_555 1_555
H12 C11 1_555 1_555
H13 C11 1_555 1_555
C12 N4 1_555 1_555
C13 N4 1_555 1_555
C14 C13 1_555 1_555
H14 C14 1_555 1_555
H15 C14 1_555 1_555
H16 C14 1_555 1_555
Zn3 N12 1_555 1_555
Zn5 N6 1_555 1_555
N14 Zn4 1_555 1_555
N15 Zn1 1_555 1_555
N5 C12 1_555 1_555
N9 C6 1_555 1_555
N11 C3 1_555 1_555
C1 C2 1_555 1_555
C4 C5 1_555 1_555
C8 C9 1_555 1_555
C11 C12 1_555 1_555
N10_2 Zn2 1_555 1_555
N11_2 N12_2 1_555 1_555
N12_2 C2_2 1_555 1_555
C1_2 H1_2 1_555 1_555
H2_2 C1_2 1_555 1_555
H3_2 C1_2 1_555 1_555
C2_2 N10_2 1_555 1_555
C3_2 N10_2 1_555 1_555
C4_2 C3_2 1_555 1_555
H4_2 C4_2 1_555 1_555
H5_2 C4_2 1_555 1_555
Zn3_2 N12_2 1_555 1_555
N14_2 Zn2 1_555 1_555
N11_2 C3_2 1_555 1_555
C1_2 C2_2 1_555 1_555
C4_2 C5_2 1_555 1_555
C7_2 C6_2 1_555 1_555
H6_2 C7_2 1_555 1_555
H7_2 C7_2 1_555 1_555
H8_2 C7_2 1_555 1_555
N9_2 C6_2 1_555 1_555
H12_2 C11_2 1_555 1_555
H13_2 C11_2 1_555 1_555
C11_2 C12_2 1_555 1_555
Zn1_2 N1_2 1_555 1_555
N1_2 C9_2 1_555 1_555
N2_2 N13 1_555 1_555
N13 C10_2 1_555 1_555
N4_2 Zn1_2 1_555 1_555
N7_2 Zn1_2 1_555 1_555
C8_2 H9_3 1_555 1_555
H10_2 C8_2 1_555 1_555
H11 C8_2 1_555 1_555
C9_2 N2_2 1_555 1_555
C10_2 N1_2 1_555 1_555
N15_2 Zn1_2 1_555 1_555
C8_2 C9_2 1_555 1_555
N6_2 C13_2 1_555 1_555
C14_2 C13_2 1_555 1_555
H14_2 C14_2 1_555 1_555
H15_2 C14_2 1_555 1_555
H16_2 C14_2 1_555 1_555
Zn5_2 N6_2 1_555 1_555
Zn3_2 N1_3 1_555 1_555
Zn5 N9_3 1_555 1_555
N1_3 C9_3 1_555 1_555
N4_3 Zn3_2 1_555 1_555
N5_2 N14 1_555 1_555
N14 C13_3 1_555 1_555
N7_3 Zn3_2 1_555 1_555
N8_3 N7_3 1_555 1_555
N9_3 C5_3 1_555 1_555
N10_3 Zn5 1_555 1_555
N11_3 N15_2 1_555 1_555
N15_2 C2_3 1_555 1_555
C1_3 H1_3 1_555 1_555
H2_3 C1_3 1_555 1_555
H3_3 C1_3 1_555 1_555
C2_3 N10_3 1_555 1_555
C3_3 N10_3 1_555 1_555
C4_3 C3_3 1_555 1_555
H4_3 C4_3 1_555 1_555
H5_3 C4_3 1_555 1_555
C5_3 N8_3 1_555 1_555
C6_3 N7_3 1_555 1_555
C7_3 C6_3 1_555 1_555
H6_3 C7_3 1_555 1_555
H7_3 C7_3 1_555 1_555
H8_3 C7_3 1_555 1_555
C8_3 H9_4 1_555 1_555
H10_3 C8_3 1_555 1_555
C10_3 N1_3 1_555 1_555
C11_3 C10_3 1_555 1_555
H12_3 C11_3 1_555 1_555
H13_3 C11_3 1_555 1_555
C12_3 N4_3 1_555 1_555
C13_3 N4_3 1_555 1_555
C14_3 C13_3 1_555 1_555
H14_3 C14_3 1_555 1_555
H15_3 C14_3 1_555 1_555
H16_3 C14_3 1_555 1_555
N13_2 Zn5 1_555 1_555
N5_2 C12_3 1_555 1_555
N9_3 C6_3 1_555 1_555
N11_3 C3_3 1_555 1_555
C1_3 C2_3 1_555 1_555
C4_3 C5_3 1_555 1_555
C8_3 C9_3 1_555 1_555
C11_3 C12_3 1_555 1_555
N2_3 N13_2 1_555 1_555
N14_2 C13_4 1_555 1_555
C14_4 C13_4 1_555 1_555
H14_4 C14_4 1_555 1_555
H15_4 C14_4 1_555 1_555
H16_4 C14_4 1_555 1_555
Zn3 N1_4 1_555 1_555
N1_4 C9_4 1_555 1_555
N2_4 N3_2 1_555 1_555
N3_2 C10_4 1_555 1_555
N4_4 Zn3 1_555 1_555
N7_4 Zn3 1_555 1_555
C8_4 H9_6 1_555 1_555
H10_4 C8_4 1_555 1_555
H11_2 C8_4 1_555 1_555
C9_4 N2_4 1_555 1_555
C10_4 N1_4 1_555 1_555
C8_4 C9_4 1_555 1_555
H12_4 C11_4 1_555 1_555
H13_4 C11_4 1_555 1_555
C11_4 C12_4 1_555 1_555
C7_4 C6_4 1_555 1_555
H6_4 C7_4 1_555 1_555
H7_4 C7_4 1_555 1_555
H8_4 C7_4 1_555 1_555
N9_4 C6_4 1_555 1_555
N10_4 Zn5_2 1_555 1_555
N11_4 N15 1_555 1_555
N15 C2_4 1_555 1_555
C1_4 H1_4 1_555 1_555
H2_4 C1_4 1_555 1_555
H3_4 C1_4 1_555 1_555
C2_4 N10_4 1_555 1_555
C3_4 N10_4 1_555 1_555
C4_4 C3_4 1_555 1_555
H4_4 C4_4 1_555 1_555
H5_4 C4_4 1_555 1_555
N11_4 C3_4 1_555 1_555
C1_4 C2_4 1_555 1_555
C4_4 C5_4 1_555 1_555

#END
