
###############################################################################
#
# This file contains modified crystal structure data generated from the
# MOF subset of the Cambridge Structural Database (CSD) v543 
# hosted by the Cambridge Crystallographic Data Centre (CCDC).
#
# This work is licensed under the Creative Commons
# Attribution-NonCommercial-ShareAlike 4.0 International License.
# To view a copy of this license, visit
# http://creativecommons.org/licenses/by-nc-sa/4.0/
# or send a letter to
# Creative Commons, PO Box 1866, Mountain View, CA 94042, USA.
#
# CIF created using the CSD Python API on 29 September 2022
# The structure has been converted into the P1 space group
# The structure has a 3D framework
# The original CSD entry ZAWCEI is in the monoclinic crystal system
# The framework has been calculated to contain at least 10.0% void space
# The void calculation uses a probe of radius 1.32A, grid spacing 0.4
#
###############################################################################

data_ZAWCEI
_chemical_formula_moiety         '(C56 H64 N48 Zn8)n'
_symmetry_cell_setting           triclinic
_symmetry_space_group_name_H-M   'P 1'
_symmetry_Int_Tables_number      1
_space_group_name_Hall           'P 1'
loop_
_symmetry_equiv_pos_site_id
_symmetry_equiv_pos_as_xyz
1 x,y,z
_cell_length_a                   10.887(2)
_cell_length_b                   12.471(3)
_cell_length_c                   16.616(3)
_cell_angle_alpha                90
_cell_angle_beta                 94.748(5)
_cell_angle_gamma                90
_cell_volume                     2248.24
loop_
_atom_site_label
_atom_site_type_symbol
_atom_site_fract_x
_atom_site_fract_y
_atom_site_fract_z
N2 N 0.0675(5) 0.8745(5) 0.5637(4)
N3 N 0.0601(5) 0.7903(5) 0.5083(4)
H9 H 0.0006 0.9900 0.6777
Zn4 Zn 0.21276(7) 0.74213(6) 0.46388(5)
Zn1 Zn 0.72739(7) 0.73422(6) 0.59714(5)
N1 N 0.8806(5) 0.7993(5) 0.5593(4)
N4 N 0.7479(5) 0.5901(4) 0.5440(3)
N5 N 0.8546(5) 0.4706(4) 0.4775(3)
N6 N 0.7733(5) 0.4176(5) 0.5242(3)
N7 N 0.5660(5) 0.7959(5) 0.5562(3)
N8 N 0.5647(5) 0.8586(4) 0.4874(3)
N9 N 0.3729(5) 0.8050(4) 0.5075(3)
N10 N 0.2366(5) 0.7806(5) 0.3478(4)
N11 N 0.3249(5) 0.8626(5) 0.2486(4)
N12 N 0.2410(5) 0.7858(5) 0.2163(4)
C1 C 0.0993(7) 0.6504(6) 0.2687(4)
H1 H 0.0838 0.6316 0.2115
H2 H 0.0222 0.6735 0.2898
H3 H 0.1317 0.5876 0.2989
C2 C 0.1912(6) 0.7394(5) 0.2775(4)
C3 C 0.3208(6) 0.8553(5) 0.3268(4)
C4 C 0.3982(6) 0.9227(6) 0.3867(4)
H4 H 0.4685 0.9526 0.3599
H5 H 0.3479 0.9836 0.4036
C5 C 0.4471(6) 0.8613(5) 0.4607(4)
C6 C 0.4508(6) 0.7663(5) 0.5665(4)
C7 C 0.4113(7) 0.6987(6) 0.6338(5)
H6 H 0.4840 0.6761 0.6684
H7 H 0.3676 0.6352 0.6114
H8 H 0.3564 0.7402 0.6657
C8 C 0.9254(8) 0.9571(8) 0.6523(6)
H10 H 0.8803 0.9220 0.6937
C9 C 0.9586(6) 0.8763(6) 0.5922(5)
C10 C 0.9490(6) 0.7478(5) 0.5077(4)
C11 C 0.9034(6) 0.6600(5) 0.4519(4)
H12 H 0.9745 0.6284 0.4269
H13 H 0.8475 0.6913 0.4081
C12 C 0.8362(6) 0.5721(5) 0.4919(4)
C13 C 0.7126(6) 0.4902(5) 0.5633(4)
C14 C 0.6130(6) 0.4655(6) 0.6171(5)
H14 H 0.6114 0.3882 0.6275
H15 H 0.5333 0.4881 0.5908
H16 H 0.6289 0.5040 0.6683
Zn3 Zn 0.22739(7) 0.76578(6) 0.09714(5)
Zn5 Zn 0.78724(7) 0.25787(6) 0.53612(5)
N14 N 0.2267(5) 0.5824(5) 0.4758(3)
N15 N 0.7410(5) 0.7142(5) 0.7163(4)
Zn2 Zn 0.28724(7) 0.24213(6) 0.03612(5)
N10_2 N 0.2634(5) 0.2806(5) 0.1522(4)
N11_2 N 0.1751(5) 0.3626(5) 0.2514(4)
N12_2 N 0.2590(5) 0.2858(5) 0.2837(4)
C1_2 C 0.4007(7) 0.1504(6) 0.2313(4)
H1_2 H 0.4162 0.1316 0.2885
H2_2 H 0.4778 0.1735 0.2102
H3_2 H 0.3683 0.0876 0.2011
C2_2 C 0.3088(6) 0.2394(5) 0.2225(4)
C3_2 C 0.1792(6) 0.3553(5) 0.1732(4)
C4_2 C 0.1018(6) 0.4227(6) 0.1133(4)
H4_2 H 0.0315 0.4526 0.1401
H5_2 H 0.1521 0.4836 0.0964
C5_2 C 0.0529(6) 0.3613(5) 0.0393(4)
Zn3_2 Zn 0.27261(7) 0.26578(6) 0.40286(5)
N14_2 N 0.2733(5) 0.0824(5) 0.0242(3)
N9_2 N 0.1271(5) 0.3050(4) 0.9925(3)
C6_2 C 0.0492(6) 0.2663(5) 0.9335(4)
C7_2 C 0.0887(7) 0.1987(6) 0.8662(5)
H6_2 H 0.0160 0.1761 0.8316
H7_2 H 0.1324 0.1352 0.8886
H8_2 H 0.1436 0.2402 0.8343
N13 N 0.4399(5) 0.2903(5) 0.9917(4)
N8_2 N 0.9353(5) 0.3586(4) 0.0126(3)
C11_2 C 0.5966(6) 0.1600(5) 0.0481(4)
H12_2 H 0.5255 0.1284 0.0731
H13_2 H 0.6525 0.1913 0.0919
C12_2 C 0.6638(6) 0.0721(5) 0.0081(4)
Zn1_2 Zn 0.77261(7) 0.23422(6) 0.90286(5)
N1_2 N 0.6194(5) 0.2993(5) 0.9407(4)
N2_2 N 0.4325(5) 0.3745(5) 0.9363(4)
N4_2 N 0.7521(5) 0.0901(4) 0.9560(3)
N7_2 N 0.9340(5) 0.2959(5) 0.9438(3)
C8_2 C 0.5746(8) 0.4571(8) 0.8477(6)
H9_2 H 0.4994 0.4900 0.8223
H10_2 H 0.6197 0.4220 0.8063
H11 H 0.6266 0.5125 0.8748
C9_2 C 0.5414(6) 0.3763(6) 0.9078(5)
C10_2 C 0.5510(6) 0.2478(5) 0.9923(4)
H16_2 H 0.8711 0.0040 0.8317
N15_2 N 0.7590(5) 0.2142(5) 0.7837(4)
N6_2 N 0.7267(5) 0.9176(5) 0.9758(3)
C13_2 C 0.7874(6) 0.9902(5) 0.9367(4)
C14_2 C 0.8870(6) 0.9655(6) 0.8829(5)
H14_2 H 0.8886 0.8882 0.8725
H15_2 H 0.9667 0.9881 0.9092
Zn5_2 Zn 0.71276(7) 0.75787(6) 0.96388(5)
N1_3 N 0.1194(5) 0.2007(5) 0.4407(4)
N4_3 N 0.2521(5) 0.4099(4) 0.4560(3)
N5_2 N 0.1454(5) 0.5294(4) 0.5225(3)
N7_3 N 0.4340(5) 0.2041(5) 0.4438(3)
N8_3 N 0.4353(5) 0.1414(4) 0.5126(3)
N9_3 N 0.6271(5) 0.1950(4) 0.4925(3)
N10_3 N 0.7634(5) 0.2194(5) 0.6522(4)
N11_3 N 0.6751(5) 0.1374(5) 0.7514(4)
C1_3 C 0.9007(7) 0.3496(6) 0.7313(4)
H1_3 H 0.9162 0.3684 0.7885
H2_3 H 0.9778 0.3265 0.7102
H3_3 H 0.8683 0.4124 0.7011
C2_3 C 0.8088(6) 0.2606(5) 0.7225(4)
C3_3 C 0.6792(6) 0.1447(5) 0.6732(4)
C4_3 C 0.6018(6) 0.0773(6) 0.6133(4)
H4_3 H 0.5315 0.0474 0.6401
H5_3 H 0.6521 0.0164 0.5964
C5_3 C 0.5529(6) 0.1387(5) 0.5393(4)
C6_3 C 0.5492(6) 0.2337(5) 0.4335(4)
C7_3 C 0.5887(7) 0.3013(6) 0.3662(5)
H6_3 H 0.5160 0.3239 0.3316
H7_3 H 0.6324 0.3648 0.3886
H8_3 H 0.6436 0.2598 0.3343
C8_3 C 0.0746(8) 0.0429(8) 0.3477(6)
H10_3 H 0.1197 0.0780 0.3063
C9_3 C 0.0414(6) 0.1237(6) 0.4078(5)
C10_3 C 0.0510(6) 0.2522(5) 0.4923(4)
C11_3 C 0.0966(6) 0.3400(5) 0.5481(4)
H12_3 H 0.0255 0.3716 0.5731
H13_3 H 0.1525 0.3087 0.5919
C12_3 C 0.1638(6) 0.4279(5) 0.5081(4)
C13_3 C 0.2874(6) 0.5098(5) 0.4367(4)
C14_3 C 0.3870(6) 0.5345(6) 0.3829(5)
H14_3 H 0.3886 0.6118 0.3725
H15_3 H 0.4667 0.5119 0.4092
H16_3 H 0.3711 0.4960 0.3317
N13_2 N 0.9399(5) 0.2097(5) 0.4917(4)
N2_3 N 0.9325(5) 0.1255(5) 0.4363(4)
H9_3 H 0.9994 0.0100 0.3223
C13_4 C 0.2126(6) 0.0098(5) 0.0633(4)
C14_4 C 0.1130(6) 0.0345(6) 0.1171(5)
H14_4 H 0.1114 0.1118 0.1275
H15_4 H 0.0333 0.0119 0.0908
N1_4 N 0.3806(5) 0.7007(5) 0.0593(4)
N2_4 N 0.5675(5) 0.6255(5) 0.0637(4)
N3_2 N 0.5601(5) 0.7097(5) 0.0083(4)
N4_4 N 0.2479(5) 0.9099(4) 0.0440(3)
N7_4 N 0.0660(5) 0.7041(5) 0.0562(3)
C8_4 C 0.4254(8) 0.5429(8) 0.1523(6)
H9_4 H 0.5006 0.5100 0.1777
H10_4 H 0.3803 0.5780 0.1937
H11_2 H 0.3734 0.4875 0.1252
C9_4 C 0.4586(6) 0.6237(6) 0.0922(5)
C10_4 C 0.4490(6) 0.7522(5) 0.0077(4)
H16_4 H 0.1289 0.9960 0.1683
N8_4 N 0.0647(5) 0.6414(4) 0.9874(3)
C11_4 C 0.4034(6) 0.8400(5) 0.9519(4)
H12_4 H 0.4745 0.8716 0.9269
H13_4 H 0.3475 0.8087 0.9081
C12_4 C 0.3362(6) 0.9279(5) 0.9919(4)
N9_4 N 0.8729(5) 0.6950(4) 0.0075(3)
C6_4 C 0.9508(6) 0.7337(5) 0.0665(4)
C7_4 C 0.9113(7) 0.8013(6) 0.1338(5)
H6_4 H 0.9840 0.8239 0.1684
H7_4 H 0.8676 0.8648 0.1114
H8_4 H 0.8564 0.7598 0.1657
N10_4 N 0.7366(5) 0.7194(5) 0.8478(4)
N11_4 N 0.8249(5) 0.6374(5) 0.7486(4)
C1_4 C 0.5993(7) 0.8496(6) 0.7687(4)
H1_4 H 0.5838 0.8684 0.7115
H2_4 H 0.5222 0.8265 0.7898
H3_4 H 0.6317 0.9124 0.7989
C2_4 C 0.6912(6) 0.7606(5) 0.7775(4)
C3_4 C 0.8208(6) 0.6447(5) 0.8268(4)
C4_4 C 0.8982(6) 0.5773(6) 0.8867(4)
H4_4 H 0.9685 0.5474 0.8599
H5_4 H 0.8479 0.5164 0.9036
C5_4 C 0.9471(6) 0.6387(5) 0.9607(4)
H11_3 H 0.8734 0.0125 0.6252
N5_3 N 0.6454(5) 0.9706(4) 0.0225(3)
H11_4 H 0.1266 0.9875 0.3748
N5_4 N 0.3546(5) 0.0294(4) 0.9775(3)
loop_
_geom_bond_atom_site_label_1
_geom_bond_atom_site_label_2
_geom_bond_site_symmetry_1
_geom_bond_site_symmetry_2
N2 N3 1_555 1_555
Zn4 N3 1_555 1_555
Zn1 N1 1_555 1_555
Zn4 N9 1_555 1_555
N1 C9 1_555 1_555
N4 Zn1 1_555 1_555
N5 N6 1_555 1_555
N6 C13 1_555 1_555
N7 Zn1 1_555 1_555
N8 N7 1_555 1_555
N9 C5 1_555 1_555
N10 Zn4 1_555 1_555
N11 N12 1_555 1_555
N12 C2 1_555 1_555
C1 H1 1_555 1_555
H2 C1 1_555 1_555
H3 C1 1_555 1_555
C2 N10 1_555 1_555
C3 N10 1_555 1_555
C4 C3 1_555 1_555
H4 C4 1_555 1_555
H5 C4 1_555 1_555
C5 N8 1_555 1_555
C6 N7 1_555 1_555
C7 C6 1_555 1_555
H6 C7 1_555 1_555
H7 C7 1_555 1_555
H8 C7 1_555 1_555
H10 C8 1_555 1_555
C10 N1 1_555 1_555
C11 C10 1_555 1_555
H12 C11 1_555 1_555
H13 C11 1_555 1_555
C12 N4 1_555 1_555
C13 N4 1_555 1_555
C14 C13 1_555 1_555
H14 C14 1_555 1_555
H15 C14 1_555 1_555
H16 C14 1_555 1_555
Zn3 N12 1_555 1_555
Zn5 N6 1_555 1_555
N14 Zn4 1_555 1_555
N15 Zn1 1_555 1_555
N5 C12 1_555 1_555
N9 C6 1_555 1_555
N11 C3 1_555 1_555
C1 C2 1_555 1_555
C4 C5 1_555 1_555
C8 C9 1_555 1_555
C11 C12 1_555 1_555
N10_2 Zn2 1_555 1_555
N11_2 N12_2 1_555 1_555
N12_2 C2_2 1_555 1_555
C1_2 H1_2 1_555 1_555
H2_2 C1_2 1_555 1_555
H3_2 C1_2 1_555 1_555
C2_2 N10_2 1_555 1_555
C3_2 N10_2 1_555 1_555
C4_2 C3_2 1_555 1_555
H4_2 C4_2 1_555 1_555
H5_2 C4_2 1_555 1_555
Zn3_2 N12_2 1_555 1_555
N14_2 Zn2 1_555 1_555
N11_2 C3_2 1_555 1_555
C1_2 C2_2 1_555 1_555
C4_2 C5_2 1_555 1_555
C7_2 C6_2 1_555 1_555
H6_2 C7_2 1_555 1_555
H7_2 C7_2 1_555 1_555
H8_2 C7_2 1_555 1_555
N9_2 C6_2 1_555 1_555
H12_2 C11_2 1_555 1_555
H13_2 C11_2 1_555 1_555
C11_2 C12_2 1_555 1_555
Zn1_2 N1_2 1_555 1_555
N1_2 C9_2 1_555 1_555
N2_2 N13 1_555 1_555
N13 C10_2 1_555 1_555
N4_2 Zn1_2 1_555 1_555
N7_2 Zn1_2 1_555 1_555
C8_2 H9_2 1_555 1_555
H10_2 C8_2 1_555 1_555
H11 C8_2 1_555 1_555
C9_2 N2_2 1_555 1_555
C10_2 N1_2 1_555 1_555
N15_2 Zn1_2 1_555 1_555
C8_2 C9_2 1_555 1_555
N6_2 C13_2 1_555 1_555
C14_2 C13_2 1_555 1_555
H14_2 C14_2 1_555 1_555
H15_2 C14_2 1_555 1_555
Zn5_2 N6_2 1_555 1_555
Zn3_2 N1_3 1_555 1_555
Zn5 N9_3 1_555 1_555
N1_3 C9_3 1_555 1_555
N4_3 Zn3_2 1_555 1_555
N5_2 N14 1_555 1_555
N14 C13_3 1_555 1_555
N7_3 Zn3_2 1_555 1_555
N8_3 N7_3 1_555 1_555
N9_3 C5_3 1_555 1_555
N10_3 Zn5 1_555 1_555
N11_3 N15_2 1_555 1_555
N15_2 C2_3 1_555 1_555
C1_3 H1_3 1_555 1_555
H2_3 C1_3 1_555 1_555
H3_3 C1_3 1_555 1_555
C2_3 N10_3 1_555 1_555
C3_3 N10_3 1_555 1_555
C4_3 C3_3 1_555 1_555
H4_3 C4_3 1_555 1_555
H5_3 C4_3 1_555 1_555
C5_3 N8_3 1_555 1_555
C6_3 N7_3 1_555 1_555
C7_3 C6_3 1_555 1_555
H6_3 C7_3 1_555 1_555
H7_3 C7_3 1_555 1_555
H8_3 C7_3 1_555 1_555
H10_3 C8_3 1_555 1_555
C10_3 N1_3 1_555 1_555
C11_3 C10_3 1_555 1_555
H12_3 C11_3 1_555 1_555
H13_3 C11_3 1_555 1_555
C12_3 N4_3 1_555 1_555
C13_3 N4_3 1_555 1_555
C14_3 C13_3 1_555 1_555
H14_3 C14_3 1_555 1_555
H15_3 C14_3 1_555 1_555
H16_3 C14_3 1_555 1_555
N13_2 Zn5 1_555 1_555
N5_2 C12_3 1_555 1_555
N9_3 C6_3 1_555 1_555
N11_3 C3_3 1_555 1_555
C1_3 C2_3 1_555 1_555
C4_3 C5_3 1_555 1_555
C8_3 C9_3 1_555 1_555
C11_3 C12_3 1_555 1_555
N2_3 N13_2 1_555 1_555
N14_2 C13_4 1_555 1_555
C14_4 C13_4 1_555 1_555
H14_4 C14_4 1_555 1_555
H15_4 C14_4 1_555 1_555
Zn3 N1_4 1_555 1_555
N1_4 C9_4 1_555 1_555
N2_4 N3_2 1_555 1_555
N3_2 C10_4 1_555 1_555
N4_4 Zn3 1_555 1_555
N7_4 Zn3 1_555 1_555
C8_4 H9_4 1_555 1_555
H10_4 C8_4 1_555 1_555
H11_2 C8_4 1_555 1_555
C9_4 N2_4 1_555 1_555
C10_4 N1_4 1_555 1_555
C8_4 C9_4 1_555 1_555
H12_4 C11_4 1_555 1_555
H13_4 C11_4 1_555 1_555
C11_4 C12_4 1_555 1_555
C7_4 C6_4 1_555 1_555
H6_4 C7_4 1_555 1_555
H7_4 C7_4 1_555 1_555
H8_4 C7_4 1_555 1_555
N9_4 C6_4 1_555 1_555
N10_4 Zn5_2 1_555 1_555
N11_4 N15 1_555 1_555
N15 C2_4 1_555 1_555
C1_4 H1_4 1_555 1_555
H2_4 C1_4 1_555 1_555
H3_4 C1_4 1_555 1_555
C2_4 N10_4 1_555 1_555
C3_4 N10_4 1_555 1_555
C4_4 C3_4 1_555 1_555
H4_4 C4_4 1_555 1_555
H5_4 C4_4 1_555 1_555
N11_4 C3_4 1_555 1_555
C1_4 C2_4 1_555 1_555
C4_4 C5_4 1_555 1_555

#END
