
###############################################################################
#
# This file contains modified crystal structure data generated from the
# MOF subset of the Cambridge Structural Database (CSD) v543 
# hosted by the Cambridge Crystallographic Data Centre (CCDC).
#
# This work is licensed under the Creative Commons
# Attribution-NonCommercial-ShareAlike 4.0 International License.
# To view a copy of this license, visit
# http://creativecommons.org/licenses/by-nc-sa/4.0/
# or send a letter to
# Creative Commons, PO Box 1866, Mountain View, CA 94042, USA.
#
# CIF created using the CSD Python API on 29 September 2022
# The structure has been converted into the P1 space group
# The structure has a 3D framework
# The original CSD entry ZAWRAU is in the trigonal crystal system
# The original CSD entry ZAWRAU is in a Sohncke space group
# The framework has been calculated to contain at least 10.0% void space
# The void calculation uses a probe of radius 1.32A, grid spacing 0.4
#
###############################################################################

data_ZAWRAU
_chemical_formula_moiety         '(C162 H102 Co9 N12 O35)n'
_symmetry_cell_setting           triclinic
_symmetry_space_group_name_H-M   'P 1'
_symmetry_Int_Tables_number      1
_space_group_name_Hall           'P 1'
loop_
_symmetry_equiv_pos_site_id
_symmetry_equiv_pos_as_xyz
1 x,y,z
_cell_length_a                   13.9652(12)
_cell_length_b                   13.9652(12)
_cell_length_c                   25.405(5)
_cell_angle_alpha                90
_cell_angle_beta                 90
_cell_angle_gamma                120
_cell_volume                     4290.86
loop_
_atom_site_label
_atom_site_type_symbol
_atom_site_fract_x
_atom_site_fract_y
_atom_site_fract_z
Co2 Co -0.000000 0.29205(15) 0.666667
O18 O 0.0035(7) 0.3904(10) 0.7243(4)
O19 O 0.1304(6) 0.2813(8) 0.6723(3)
C21 C 0.7941(8) 0.1108(8) 0.6261(4)
O5 O 0.8696(6) 0.1509(6) 0.6610(3)
Co2_2 Co 1.000000 0.29205(15) 0.666667
O6 O 0.7857(7) 0.1706(6) 0.5916(3)
O17 O 0.9965(7) 0.3869(7) 0.6090(4)
Co5 Co 0.84871(9) 0.31017(9) 0.55008(4)
O1 O 0.8354(7) 0.4524(8) 0.5456(4)
O2 O 0.6912(10) 0.3042(9) 0.5733(4)
C1 C 0.7413(13) 0.4067(12) 0.5620(4)
C2 C 0.6824(9) 0.4691(9) 0.5743(4)
C3 C 0.7315(7) 0.5784(8) 0.5594(4)
H1 H 0.798840 0.611550 0.541758
C4 C 0.5795(10) 0.4212(9) 0.5981(4)
H2 H 0.543488 0.346409 0.606563
C5 C 0.5308(9) 0.4805(8) 0.6092(4)
H3 H 0.463880 0.447246 0.627239
C6 C 0.5784(8) 0.5908(8) 0.5945(4)
N1 N 0.5223(6) 0.6504(6) 0.6053(3)
C7 C 0.6797(8) 0.6392(8) 0.5709(4)
H4 H 0.714712 0.713909 0.562275
C8 C 0.4086(7) 0.5973(7) 0.5952(3)
C9 C 0.5828(8) 0.7657(7) 0.6152(4)
C10 C 0.3653(8) 0.5427(9) 0.5485(4)
H5 H 0.411552 0.540557 0.522718
C11 C 0.3371(7) 0.5955(9) 0.6341(3)
H6 H 0.364868 0.631247 0.666056
C12 C 0.2524(9) 0.4911(11) 0.5402(4)
H7 H 0.224072 0.458861 0.507658
C13 C 0.1822(7) 0.4861(8) 0.5781(5)
C14 C 0.2247(7) 0.5401(8) 0.6246(4)
H8 H 0.176981 0.539609 0.650325
C15 C 0.0606(11) 0.4215(12) 0.5698(7)
O4 O 0.0218(8) 0.4026(9) 0.5247(4)
C16 C 0.5546(9) 0.8359(8) 0.5908(4)
H9 H 0.491114 0.807571 0.570248
C17 C 0.6729(10) 0.8064(9) 0.6484(4)
H10 H 0.689399 0.758575 0.666465
C18 C 0.7393(9) 0.9214(8) 0.6543(4)
H11 H 0.798795 0.949843 0.677546
C19 C 0.7176(7) 0.9917(7) 0.6265(4)
C20 C 0.6217(8) 0.9498(8) 0.5970(4)
H12 H 0.602080 0.997636 0.581277
N2 N 0.7975(6) 0.2361(6) 0.4785(3)
C22 C 0.7126(9) 0.1328(9) 0.4774(4)
H13 H 0.677177 0.101603 0.509067
C23 C 0.8409(9) 0.2815(8) 0.4315(4)
H14 H 0.896624 0.355289 0.431065
C24 C 0.6740(9) 0.0698(9) 0.4330(4)
C25 C 0.7225(8) 0.1159(8) 0.3836(3)
C26 C 0.6896(8) 0.0541(8) 0.3353(4)
H16 H 0.708323 0.094284 0.304156
C27 C 0.8088(10) 0.2267(8) 0.3838(4)
H17 H 0.843381 0.262045 0.352608
H20 H 0.619137 0.002837 0.231500
H16_2 H 0.385961 0.291677 0.970823
N3 N 0.2025(10) 0.4386(8) 0.8548(3)
C28 C 0.2874(16) 0.4202(13) 0.8559(4)
H18 H 0.322823 0.424426 0.824266
C29 C 0.1591(14) 0.4406(12) 0.9018(4)
H19 H 0.103376 0.458665 0.902268
C30 C 0.3260(16) 0.3958(13) 0.9003(4)
H20_2 H 0.383700 0.380863 0.898166
C31 C 0.2775(14) 0.3934(11) 0.9497(3)
C32 C 0.3104(14) 0.3645(11) 0.9980(4)
C33 C 0.1912(15) 0.4179(13) 0.9495(4)
H22 H 0.156619 0.418664 0.980725
Co3 Co 0.15129(16) 0.46146(13) 0.78325(4)
O14 O 0.1646(14) 0.6170(11) 0.7877(4)
O16 O 0.3088(16) 0.6130(13) 0.7600(4)
O21 O 0.2143(11) 0.3849(9) 0.7417(3)
C39 C 0.4216(14) 0.0124(11) 0.7388(4)
N4 N 0.4777(10) 0.1281(8) 0.7280(3)
C41 C 0.5914(12) 0.1887(10) 0.7381(3)
C42 C 0.4172(13) 0.1829(11) 0.7181(4)
C43 C 0.6347(15) 0.1774(12) 0.7848(4)
H27 H 0.588448 0.129005 0.810615
C44 C 0.6629(14) 0.2584(11) 0.6992(3)
H28 H 0.635132 0.266379 0.667277
C45 C 0.7476(18) 0.2387(14) 0.7931(4)
H29 H 0.775928 0.234789 0.825675
C46 C 0.8178(14) 0.3039(11) 0.7552(5)
C47 C 0.7753(14) 0.3154(11) 0.7087(4)
H30 H 0.823019 0.362628 0.683008
C48 C 0.9394(20) 0.3609(16) 0.7635(7)
O10 O 0.9782(15) 0.3808(12) 0.8086(4)
C49 C 0.4454(14) 0.2813(12) 0.7425(4)
H31 H 0.508886 0.316457 0.763085
C50 C 0.3271(16) 0.1335(13) 0.6849(4)
H32 H 0.310601 0.069176 0.666868
C51 C 0.2607(14) 0.1821(12) 0.6790(4)
H33 H 0.201205 0.151048 0.655787
C52 C 0.2824(12) 0.2741(10) 0.7068(4)
C53 C 0.3783(14) 0.3281(11) 0.7363(4)
H34 H 0.397920 0.395556 0.752056
C54 C 0.2059(14) 0.3167(11) 0.7072(4)
C34 C 0.2587(22) 0.6654(18) 0.7713(4)
C35 C 0.3176(16) 0.7867(13) 0.7590(4)
C36 C 0.2685(14) 0.8469(11) 0.7739(4)
H23 H 0.201160 0.812710 0.791575
C37 C 0.4205(16) 0.8417(13) 0.7352(4)
H24 H 0.456512 0.802921 0.726770
C38 C 0.4692(14) 0.9497(12) 0.7241(4)
H25 H 0.536120 0.983366 0.706094
C40 C 0.3203(14) 0.9595(11) 0.7624(4)
H26 H 0.285288 0.999197 0.771058
O7 O 0.3830(11) 0.5476(8) 0.1211(4)
O8 O 0.3870(13) 0.6958(9) 0.0934(4)
C34_2 C 0.3346(18) 0.5933(12) 0.1047(4)
C35_2 C 0.2133(13) 0.5309(9) 0.0924(4)
C36_2 C 0.1531(11) 0.4216(8) 0.1073(4)
H23_2 H 0.187290 0.388450 0.124909
C37_2 C 0.1583(13) 0.5788(9) 0.0686(4)
H24_2 H 0.197079 0.653591 0.060104
C38_2 C 0.0503(12) 0.5195(8) 0.0575(4)
H25_2 H 0.016634 0.552754 0.039428
C40_2 C 0.0405(11) 0.3608(8) 0.0958(4)
H26_2 H 0.000803 0.286091 0.104392
Co7 Co 0.53854(13) 0.68983(9) 0.11659(4)
H15 H 0.616300 0.997163 0.435167
N3_2 N 0.5614(8) 0.7639(6) 0.1882(3)
C28_2 C 0.5798(13) 0.8672(9) 0.1893(4)
H18_2 H 0.575574 0.898397 0.157600
C29_2 C 0.5594(12) 0.7185(8) 0.2352(4)
H19_2 H 0.541335 0.644711 0.235602
C30_2 C 0.6042(13) 0.9302(9) 0.2337(4)
C31_2 C 0.6066(11) 0.8841(8) 0.2831(3)
C32_2 C 0.6355(11) 0.9459(8) 0.3314(4)
H21 H 0.614039 0.905716 0.362511
C33_2 C 0.5821(13) 0.7733(8) 0.2829(4)
H22_2 H 0.581336 0.737955 0.314059
C39_2 C 0.9876(11) 0.4092(8) 0.0722(4)
N4_2 N 0.8719(8) 0.3496(6) 0.0614(3)
C41_2 C 0.8113(10) 0.4027(7) 0.0715(3)
C42_2 C 0.8171(11) 0.2343(7) 0.0515(4)
C43_2 C 0.8226(12) 0.4573(9) 0.1182(4)
H27_2 H 0.870995 0.459443 0.143949
C44_2 C 0.7416(11) 0.4045(9) 0.0326(3)
H28_2 H 0.733621 0.368753 0.000611
C45_2 C 0.7613(14) 0.5089(11) 0.1265(4)
H29_2 H 0.765211 0.541139 0.159009
C46_2 C 0.6961(11) 0.5139(8) 0.0886(5)
C47_2 C 0.6846(11) 0.4599(8) 0.0421(4)
H30_2 H 0.637372 0.460391 0.016342
C48_2 C 0.6391(16) 0.5785(12) 0.0969(7)
O9 O 0.6096(10) 0.6131(7) 0.0577(4)
O10_2 O 0.6192(12) 0.5974(9) 0.1420(4)
C49_2 C 0.7187(12) 0.1641(8) 0.0759(4)
H31_2 H 0.683543 0.192429 0.096419
C50_2 C 0.8665(13) 0.1936(9) 0.0183(4)
H32_2 H 0.930824 0.241425 0.000202
C51_2 C 0.8179(12) 0.0786(8) 0.0124(4)
C52_2 C 0.7259(10) 0.0083(7) 0.0402(4)
C53_2 C 0.6719(11) 0.0502(8) 0.0697(4)
H34_2 H 0.604444 0.002364 0.085390
Co10 Co 0.70795(15) 0.70795(15) 0.000000
O21_2 O 0.6151(9) 0.8294(6) 0.0751(3)
C54_2 C 0.6833(11) 0.8892(8) 0.0406(4)
O11 O 0.7187(8) 0.8491(6) 0.0057(3)
H11_2 H 0.050157 0.848952 0.010879
H33_2 H 0.848952 0.050157 0.989121
Co10_2 Co 0.70795(15) 0.70795(15) 1.000000
O1_2 O 0.5476(8) 0.3830(11) 0.8789(4)
O2_2 O 0.6958(9) 0.3870(13) 0.9066(4)
C1_2 C 0.5933(12) 0.3346(18) 0.8953(4)
C2_2 C 0.5309(9) 0.2133(13) 0.9076(4)
C3_2 C 0.4216(8) 0.1531(11) 0.8927(4)
H1_2 H 0.388450 0.187290 0.875091
C4_2 C 0.5788(9) 0.1583(13) 0.9314(4)
H2_2 H 0.653591 0.197079 0.939896
C5_2 C 0.5195(8) 0.0503(12) 0.9425(4)
H3_2 H 0.552754 0.016634 0.960572
C7_2 C 0.3608(8) 0.0405(11) 0.9042(4)
H4_2 H 0.286091 0.000803 0.895608
Co4 Co 0.68983(9) 0.53854(13) 0.88341(4)
C6_2 C 0.4092(8) 0.9876(11) 0.9278(4)
N1_2 N 0.3496(6) 0.8719(8) 0.9386(3)
C8_2 C 0.4027(7) 0.8113(10) 0.9285(3)
C9_2 C 0.2343(7) 0.8171(11) 0.9485(4)
C10_2 C 0.4573(9) 0.8226(12) 0.8818(4)
H5_2 H 0.459443 0.870995 0.856051
C11_2 C 0.4045(9) 0.7416(11) 0.9674(3)
H6_2 H 0.368753 0.733621 0.999389
C12_2 C 0.5089(11) 0.7613(14) 0.8735(4)
H7_2 H 0.541139 0.765211 0.840991
C13_2 C 0.5139(8) 0.6961(11) 0.9114(5)
C14_2 C 0.4599(8) 0.6846(11) 0.9579(4)
H8_2 H 0.460391 0.637372 0.983658
C15_2 C 0.5785(12) 0.6391(16) 0.9031(7)
O3 O 0.6131(7) 0.6096(10) 0.9423(4)
O4_2 O 0.5974(9) 0.6192(12) 0.8580(4)
C16_2 C 0.1641(8) 0.7187(12) 0.9241(4)
H9_2 H 0.192429 0.683543 0.903581
C17_2 C 0.1936(9) 0.8665(13) 0.9817(4)
H10_2 H 0.241425 0.930824 0.999798
C18_2 C 0.0786(8) 0.8179(12) 0.9876(4)
C19_2 C 0.0083(7) 0.7259(10) 0.9598(4)
C20_2 C 0.0502(8) 0.6719(11) 0.9303(4)
H12_2 H 0.002364 0.604444 0.914610
N2_2 N 0.7639(6) 0.5614(8) 0.8118(3)
C22_2 C 0.8672(9) 0.5798(13) 0.8107(4)
H13_2 H 0.898397 0.575574 0.842400
C23_2 C 0.7185(8) 0.5594(12) 0.7648(4)
H14_2 H 0.644711 0.541335 0.764398
C24_2 C 0.9302(9) 0.6042(13) 0.7663(4)
C25_2 C 0.8841(8) 0.6066(11) 0.7169(3)
C26_2 C 0.9459(8) 0.6355(11) 0.6686(4)
H16_3 H 0.905716 0.614039 0.637489
C27_2 C 0.7733(8) 0.5821(13) 0.7171(4)
H17_2 H 0.737955 0.581336 0.685941
H20_3 H 0.997163 0.616300 0.564833
O20 O 0.8294(6) 0.6151(9) 0.9249(3)
C21_2 C 0.8892(8) 0.6833(11) 0.9594(4)
O5_2 O 0.8491(6) 0.7187(8) 0.9943(3)
Co9 Co 0.29205(15) -0.00000(21) 0.333334
C54_3 C 0.1108(8) 0.7941(14) 0.3739(4)
O11_2 O 0.1509(6) 0.8696(10) 0.3390(3)
O12 O 0.1706(6) 0.7857(11) 0.4084(3)
Co6 Co 0.31017(9) 0.84871(16) 0.44992(4)
Co9_2 Co 0.29205(15) 1.00000(21) 0.333334
O7_2 O 0.4524(8) 0.8354(14) 0.4544(4)
O8_2 O 0.3042(9) 0.6912(16) 0.4267(4)
C34_3 C 0.4067(12) 0.7413(22) 0.4380(4)
C35_3 C 0.4691(9) 0.6824(16) 0.4257(4)
C36_3 C 0.5784(8) 0.7315(14) 0.4406(4)
H23_3 H 0.611550 0.798840 0.458242
C37_3 C 0.4212(9) 0.5795(16) 0.4019(4)
H24_3 H 0.346409 0.543488 0.393437
C38_3 C 0.4805(8) 0.5308(14) 0.3908(4)
H25_3 H 0.447246 0.463880 0.372761
C39_3 C 0.5908(8) 0.5784(14) 0.4055(4)
N4_3 N 0.6504(6) 0.5223(10) 0.3947(3)
C40_3 C 0.6392(8) 0.6797(14) 0.4291(4)
H26_3 H 0.713909 0.714712 0.437725
C41_3 C 0.5973(7) 0.4086(12) 0.4048(3)
C42_3 C 0.7657(7) 0.5828(13) 0.3848(4)
C43_3 C 0.5427(9) 0.3653(15) 0.4515(4)
H27_3 H 0.540557 0.411552 0.477282
C44_3 C 0.5955(9) 0.3371(14) 0.3659(3)
H28_3 H 0.631247 0.364868 0.333944
C45_3 C 0.4911(11) 0.2524(18) 0.4598(4)
H29_3 H 0.458861 0.224072 0.492342
C46_3 C 0.4861(8) 0.1822(14) 0.4219(5)
C47_3 C 0.5401(8) 0.2247(14) 0.3754(4)
H30_3 H 0.539609 0.176981 0.349675
C48_3 C 0.4215(12) 0.0606(20) 0.4302(7)
O10_3 O 0.4026(9) 0.0218(15) 0.4753(4)
C49_3 C 0.8359(8) 0.5546(14) 0.4092(4)
H31_3 H 0.807571 0.491114 0.429752
C50_3 C 0.8064(9) 0.6729(16) 0.3516(4)
H32_3 H 0.758575 0.689399 0.333535
C51_3 C 0.9214(8) 0.7393(14) 0.3457(4)
H33_3 H 0.949843 0.798795 0.322454
C52_3 C 0.9917(7) 0.7176(12) 0.3735(4)
C53_3 C 0.9498(8) 0.6217(14) 0.4030(4)
H34_3 H 0.997636 0.602080 0.418723
H15_2 H 0.002837 0.619137 0.768500
N3_3 N 0.2361(6) 0.7975(10) 0.5215(3)
C28_3 C 0.1328(9) 0.7126(16) 0.5226(4)
H18_3 H 0.101603 0.677177 0.490933
C29_3 C 0.2815(8) 0.8409(14) 0.5685(4)
H19_3 H 0.355289 0.896624 0.568935
C30_3 C 0.0698(9) 0.6740(16) 0.5670(4)
C31_3 C 0.1159(8) 0.7225(14) 0.6164(3)
C32_3 C 0.0541(8) 0.6896(14) 0.6647(4)
H21_2 H 0.094284 0.708323 0.695844
C33_3 C 0.2267(8) 0.8088(15) 0.6162(4)
H22_3 H 0.262045 0.843381 0.647392
O9_2 O 0.3869(7) 0.9965(12) 0.3910(4)
O3_2 O 0.3904(10) 0.0035(7) 0.2757(4)
Co1 Co 0.46146(13) 0.15129(9) 0.21675(4)
N2_3 N 0.4386(8) 0.2025(6) 0.1452(3)
C22_3 C 0.4202(13) 0.2874(9) 0.1441(4)
H13_3 H 0.424426 0.322823 0.175734
C23_3 C 0.4406(12) 0.1591(9) 0.0982(4)
H14_3 H 0.458665 0.103376 0.097732
C24_3 C 0.3958(13) 0.3260(9) 0.0997(4)
H15_3 H 0.380863 0.383700 0.101834
C25_3 C 0.3934(11) 0.2775(8) 0.0503(3)
C26_3 C 0.3645(11) 0.3104(8) 0.0020(4)
C27_3 C 0.4179(13) 0.1912(10) 0.0505(4)
H17_3 H 0.418664 0.156619 0.019275
H21_3 H 0.291677 0.385961 0.029177
O13 O 0.6170(11) 0.1646(7) 0.2123(4)
O15 O 0.6130(13) 0.3088(10) 0.2400(4)
O20_2 O 0.3849(9) 0.2143(7) 0.2583(3)
C6_3 C 0.0124(11) 0.4216(8) 0.2612(4)
N1_3 N 0.1281(8) 0.4777(6) 0.2720(3)
C8_3 C 0.1887(10) 0.5914(7) 0.2619(3)
C9_3 C 0.1829(11) 0.4172(8) 0.2819(4)
C10_3 C 0.1774(12) 0.6347(8) 0.2152(4)
H5_3 H 0.129005 0.588448 0.189385
C11_3 C 0.2584(11) 0.6629(7) 0.3008(3)
H6_3 H 0.266379 0.635132 0.332723
C12_3 C 0.2387(14) 0.7476(9) 0.2069(4)
H7_3 H 0.234789 0.775928 0.174325
C13_3 C 0.3039(11) 0.8178(7) 0.2448(5)
C14_3 C 0.3154(11) 0.7753(7) 0.2913(4)
H8_3 H 0.362628 0.823019 0.316992
C15_3 C 0.3609(16) 0.9394(11) 0.2365(7)
O4_3 O 0.3808(12) 0.9782(8) 0.1914(4)
C16_3 C 0.2813(12) 0.4454(9) 0.2575(4)
H9_3 H 0.316457 0.508886 0.236915
C17_3 C 0.1335(13) 0.3271(10) 0.3151(4)
H10_3 H 0.069176 0.310601 0.333132
C18_3 C 0.1821(12) 0.2607(9) 0.3210(4)
H11_3 H 0.151048 0.201205 0.344213
C19_3 C 0.2741(10) 0.2824(7) 0.2932(4)
C20_3 C 0.3281(11) 0.3783(8) 0.2637(4)
H12_3 H 0.395556 0.397920 0.247944
C21_3 C 0.3167(11) 0.2059(8) 0.2928(4)
O5_3 O 0.2813(8) 0.1304(6) 0.3277(3)
C1_3 C 0.6654(18) 0.2587(13) 0.2287(4)
C2_3 C 0.7867(13) 0.3176(9) 0.2410(4)
C3_3 C 0.8469(11) 0.2685(7) 0.2261(4)
H1_3 H 0.812710 0.201160 0.208425
C4_3 C 0.8417(13) 0.4205(10) 0.2648(4)
H2_3 H 0.802921 0.456512 0.273230
C5_3 C 0.9497(12) 0.4692(9) 0.2759(4)
H3_3 H 0.983366 0.536120 0.293906
C7_3 C 0.9595(11) 0.3203(8) 0.2376(4)
H4_3 H 0.999197 0.285288 0.228942
loop_
_geom_bond_atom_site_label_1
_geom_bond_atom_site_label_2
_geom_bond_site_symmetry_1
_geom_bond_site_symmetry_2
O18 Co2 1_555 1_555
O19 Co2 1_555 1_555
O5 C21 1_555 1_555
Co2_2 O5 1_555 1_555
O6 C21 1_555 1_555
O17 Co2_2 1_555 1_555
Co5 O6 1_555 1_555
O17 Co5 1_555 1_555
O1 C1 1_555 1_555
O2 C1 1_555 1_555
C1 C2 1_555 1_555
C2 C3 1_555 1_555
C3 H1 1_555 1_555
C4 C2 1_555 1_555
H2 C4 1_555 1_555
C5 C4 1_555 1_555
H3 C5 1_555 1_555
C6 C5 1_555 1_555
N1 C6 1_555 1_555
C7 C3 1_555 1_555
H4 C7 1_555 1_555
C8 N1 1_555 1_555
C9 N1 1_555 1_555
C10 C8 1_555 1_555
H5 C10 1_555 1_555
C11 C8 1_555 1_555
H6 C11 1_555 1_555
C12 C10 1_555 1_555
H7 C12 1_555 1_555
C13 C12 1_555 1_555
C14 C11 1_555 1_555
H8 C14 1_555 1_555
C15 C13 1_555 1_555
O4 C15 1_555 1_555
C16 C9 1_555 1_555
H9 C16 1_555 1_555
C17 C9 1_555 1_555
H10 C17 1_555 1_555
C18 C17 1_555 1_555
H11 C18 1_555 1_555
C19 C18 1_555 1_555
C20 C16 1_555 1_555
H12 C20 1_555 1_555
Co5 O1 1_555 1_555
O2 Co5 1_555 1_555
C6 C7 1_555 1_555
C13 C14 1_555 1_555
C19 C20 1_555 1_555
N2 Co5 1_555 1_555
C22 N2 1_555 1_555
H13 C22 1_555 1_555
C23 N2 1_555 1_555
H14 C23 1_555 1_555
C24 C22 1_555 1_555
C25 C24 1_555 1_555
C26 C25 1_555 1_555
H16 C26 1_555 1_555
C27 C23 1_555 1_555
H17 C27 1_555 1_555
C25 C27 1_555 1_555
N3 C28 1_555 1_555
C28 H18 1_555 1_555
C29 N3 1_555 1_555
H19 C29 1_555 1_555
C30 C28 1_555 1_555
H20_2 C30 1_555 1_555
C31 C30 1_555 1_555
C33 C29 1_555 1_555
H22 C33 1_555 1_555
Co3 N3 1_555 1_555
O14 Co3 1_555 1_555
O16 Co3 1_555 1_555
O21 Co3 1_555 1_555
C31 C32 1_555 1_555
C31 C33 1_555 1_555
O18 Co3 1_555 1_555
N4 C39 1_555 1_555
C41 N4 1_555 1_555
C42 N4 1_555 1_555
C43 C41 1_555 1_555
H27 C43 1_555 1_555
C44 C41 1_555 1_555
H28 C44 1_555 1_555
C45 C43 1_555 1_555
H29 C45 1_555 1_555
C46 C45 1_555 1_555
C47 C44 1_555 1_555
H30 C47 1_555 1_555
C48 C46 1_555 1_555
O10 C48 1_555 1_555
C49 C42 1_555 1_555
H31 C49 1_555 1_555
C50 C42 1_555 1_555
H32 C50 1_555 1_555
C51 C50 1_555 1_555
H33 C51 1_555 1_555
C52 C51 1_555 1_555
C53 C49 1_555 1_555
H34 C53 1_555 1_555
C54 C52 1_555 1_555
O19 C54 1_555 1_555
O21 C54 1_555 1_555
C46 C47 1_555 1_555
C52 C53 1_555 1_555
O14 C34 1_555 1_555
O16 C34 1_555 1_555
C34 C35 1_555 1_555
C35 C36 1_555 1_555
C36 H23 1_555 1_555
C37 C35 1_555 1_555
H24 C37 1_555 1_555
C38 C37 1_555 1_555
H25 C38 1_555 1_555
C40 C36 1_555 1_555
H26 C40 1_555 1_555
O7 C34_2 1_555 1_555
O8 C34_2 1_555 1_555
C34_2 C35_2 1_555 1_555
C35_2 C36_2 1_555 1_555
C36_2 H23_2 1_555 1_555
C37_2 C35_2 1_555 1_555
H24_2 C37_2 1_555 1_555
C38_2 C37_2 1_555 1_555
H25_2 C38_2 1_555 1_555
C40_2 C36_2 1_555 1_555
H26_2 C40_2 1_555 1_555
Co7 O7 1_555 1_555
O8 Co7 1_555 1_555
N3_2 C28_2 1_555 1_555
C28_2 H18_2 1_555 1_555
C29_2 N3_2 1_555 1_555
H19_2 C29_2 1_555 1_555
C30_2 C28_2 1_555 1_555
C31_2 C30_2 1_555 1_555
H21 C32_2 1_555 1_555
C33_2 C29_2 1_555 1_555
H22_2 C33_2 1_555 1_555
N4_2 C39_2 1_555 1_555
C41_2 N4_2 1_555 1_555
C42_2 N4_2 1_555 1_555
C43_2 C41_2 1_555 1_555
H27_2 C43_2 1_555 1_555
C44_2 C41_2 1_555 1_555
H28_2 C44_2 1_555 1_555
C45_2 C43_2 1_555 1_555
H29_2 C45_2 1_555 1_555
C46_2 C45_2 1_555 1_555
C47_2 C44_2 1_555 1_555
H30_2 C47_2 1_555 1_555
C48_2 C46_2 1_555 1_555
O9 C48_2 1_555 1_555
O10_2 C48_2 1_555 1_555
Co7 N3_2 1_555 1_555
C49_2 C42_2 1_555 1_555
H31_2 C49_2 1_555 1_555
C50_2 C42_2 1_555 1_555
H32_2 C50_2 1_555 1_555
C51_2 C50_2 1_555 1_555
C52_2 C51_2 1_555 1_555
C53_2 C49_2 1_555 1_555
H34_2 C53_2 1_555 1_555
Co10 O9 1_555 1_555
O21_2 Co7 1_555 1_555
C31_2 C32_2 1_555 1_555
C31_2 C33_2 1_555 1_555
C46_2 C47_2 1_555 1_555
O9 Co7 1_555 1_555
O10_2 Co7 1_555 1_555
C52_2 C53_2 1_555 1_555
O11 C54_2 1_555 1_555
O21_2 C54_2 1_555 1_555
Co10 O11 1_555 1_555
O1_2 C1_2 1_555 1_555
O2_2 C1_2 1_555 1_555
C1_2 C2_2 1_555 1_555
C2_2 C3_2 1_555 1_555
C3_2 H1_2 1_555 1_555
C4_2 C2_2 1_555 1_555
H2_2 C4_2 1_555 1_555
C5_2 C4_2 1_555 1_555
H3_2 C5_2 1_555 1_555
C7_2 C3_2 1_555 1_555
H4_2 C7_2 1_555 1_555
Co4 O1_2 1_555 1_555
O2_2 Co4 1_555 1_555
N1_2 C6_2 1_555 1_555
C8_2 N1_2 1_555 1_555
C9_2 N1_2 1_555 1_555
C10_2 C8_2 1_555 1_555
H5_2 C10_2 1_555 1_555
C11_2 C8_2 1_555 1_555
H6_2 C11_2 1_555 1_555
C12_2 C10_2 1_555 1_555
H7_2 C12_2 1_555 1_555
C13_2 C12_2 1_555 1_555
C14_2 C11_2 1_555 1_555
H8_2 C14_2 1_555 1_555
C15_2 C13_2 1_555 1_555
O3 C15_2 1_555 1_555
O4_2 C15_2 1_555 1_555
Co4 O3 1_555 1_555
C16_2 C9_2 1_555 1_555
H9_2 C16_2 1_555 1_555
C17_2 C9_2 1_555 1_555
H10_2 C17_2 1_555 1_555
C18_2 C17_2 1_555 1_555
C19_2 C18_2 1_555 1_555
C20_2 C16_2 1_555 1_555
H12_2 C20_2 1_555 1_555
N2_2 Co4 1_555 1_555
C22_2 N2_2 1_555 1_555
H13_2 C22_2 1_555 1_555
C23_2 N2_2 1_555 1_555
H14_2 C23_2 1_555 1_555
C24_2 C22_2 1_555 1_555
C25_2 C24_2 1_555 1_555
C26_2 C25_2 1_555 1_555
H16_3 C26_2 1_555 1_555
C27_2 C23_2 1_555 1_555
H17_2 C27_2 1_555 1_555
Co10_2 O3 1_555 1_555
O20 Co4 1_555 1_555
C13_2 C14_2 1_555 1_555
O4_2 Co4 1_555 1_555
C19_2 C20_2 1_555 1_555
C25_2 C27_2 1_555 1_555
O5_2 C21_2 1_555 1_555
Co10_2 O5_2 1_555 1_555
O20 C21_2 1_555 1_555
O11_2 C54_3 1_555 1_555
O12 C54_3 1_555 1_555
Co6 O12 1_555 1_555
Co9_2 O11_2 1_555 1_555
O7_2 C34_3 1_555 1_555
O8_2 C34_3 1_555 1_555
C34_3 C35_3 1_555 1_555
C35_3 C36_3 1_555 1_555
C36_3 H23_3 1_555 1_555
C37_3 C35_3 1_555 1_555
H24_3 C37_3 1_555 1_555
C38_3 C37_3 1_555 1_555
H25_3 C38_3 1_555 1_555
C39_3 C38_3 1_555 1_555
N4_3 C39_3 1_555 1_555
C40_3 C36_3 1_555 1_555
H26_3 C40_3 1_555 1_555
C41_3 N4_3 1_555 1_555
C42_3 N4_3 1_555 1_555
C43_3 C41_3 1_555 1_555
H27_3 C43_3 1_555 1_555
C44_3 C41_3 1_555 1_555
H28_3 C44_3 1_555 1_555
C45_3 C43_3 1_555 1_555
H29_3 C45_3 1_555 1_555
C46_3 C45_3 1_555 1_555
C47_3 C44_3 1_555 1_555
H30_3 C47_3 1_555 1_555
C48_3 C46_3 1_555 1_555
O10_3 C48_3 1_555 1_555
C49_3 C42_3 1_555 1_555
H31_3 C49_3 1_555 1_555
C50_3 C42_3 1_555 1_555
H32_3 C50_3 1_555 1_555
C51_3 C50_3 1_555 1_555
H33_3 C51_3 1_555 1_555
C52_3 C51_3 1_555 1_555
C53_3 C49_3 1_555 1_555
H34_3 C53_3 1_555 1_555
Co6 O7_2 1_555 1_555
O8_2 Co6 1_555 1_555
C39_3 C40_3 1_555 1_555
C46_3 C47_3 1_555 1_555
C52_3 C53_3 1_555 1_555
N3_3 C28_3 1_555 1_555
C28_3 H18_3 1_555 1_555
C29_3 N3_3 1_555 1_555
H19_3 C29_3 1_555 1_555
C30_3 C28_3 1_555 1_555
C31_3 C30_3 1_555 1_555
H21_2 C32_3 1_555 1_555
C33_3 C29_3 1_555 1_555
H22_3 C33_3 1_555 1_555
Co6 N3_3 1_555 1_555
Co9_2 O9_2 1_555 1_555
C31_3 C32_3 1_555 1_555
C31_3 C33_3 1_555 1_555
O9_2 Co6 1_555 1_555
Co1 O3_2 1_555 1_555
N2_3 Co1 1_555 1_555
C22_3 N2_3 1_555 1_555
H13_3 C22_3 1_555 1_555
C23_3 N2_3 1_555 1_555
H14_3 C23_3 1_555 1_555
C24_3 C22_3 1_555 1_555
H15_3 C24_3 1_555 1_555
C25_3 C24_3 1_555 1_555
C26_3 C25_3 1_555 1_555
C27_3 C23_3 1_555 1_555
H17_3 C27_3 1_555 1_555
O13 Co1 1_555 1_555
O15 Co1 1_555 1_555
Co9 O3_2 1_555 1_555
O20_2 Co1 1_555 1_555
C25_3 C27_3 1_555 1_555
N1_3 C6_3 1_555 1_555
C8_3 N1_3 1_555 1_555
C9_3 N1_3 1_555 1_555
C10_3 C8_3 1_555 1_555
H5_3 C10_3 1_555 1_555
C11_3 C8_3 1_555 1_555
H6_3 C11_3 1_555 1_555
C12_3 C10_3 1_555 1_555
H7_3 C12_3 1_555 1_555
C13_3 C12_3 1_555 1_555
C14_3 C11_3 1_555 1_555
H8_3 C14_3 1_555 1_555
C15_3 C13_3 1_555 1_555
O4_3 C15_3 1_555 1_555
C16_3 C9_3 1_555 1_555
H9_3 C16_3 1_555 1_555
C17_3 C9_3 1_555 1_555
H10_3 C17_3 1_555 1_555
C18_3 C17_3 1_555 1_555
H11_3 C18_3 1_555 1_555
C19_3 C18_3 1_555 1_555
C20_3 C16_3 1_555 1_555
H12_3 C20_3 1_555 1_555
C21_3 C19_3 1_555 1_555
O5_3 C21_3 1_555 1_555
Co9 O5_3 1_555 1_555
O20_2 C21_3 1_555 1_555
C13_3 C14_3 1_555 1_555
C19_3 C20_3 1_555 1_555
O13 C1_3 1_555 1_555
O15 C1_3 1_555 1_555
C1_3 C2_3 1_555 1_555
C2_3 C3_3 1_555 1_555
C3_3 H1_3 1_555 1_555
C4_3 C2_3 1_555 1_555
H2_3 C4_3 1_555 1_555
C5_3 C4_3 1_555 1_555
H3_3 C5_3 1_555 1_555
C7_3 C3_3 1_555 1_555
H4_3 C7_3 1_555 1_555

#END
