
###############################################################################
#
# This file contains modified crystal structure data generated from the
# MOF subset of the Cambridge Structural Database (CSD) v543 
# hosted by the Cambridge Crystallographic Data Centre (CCDC).
#
# This work is licensed under the Creative Commons
# Attribution-NonCommercial-ShareAlike 4.0 International License.
# To view a copy of this license, visit
# http://creativecommons.org/licenses/by-nc-sa/4.0/
# or send a letter to
# Creative Commons, PO Box 1866, Mountain View, CA 94042, USA.
#
# CIF created using the CSD Python API on 29 September 2022
# The structure has been converted into the P1 space group
# The structure has a 3D framework
# The original CSD entry ZAXSAV is in the triclinic crystal system
# The framework has been calculated to contain at least 10.0% void space
# The void calculation uses a probe of radius 1.32A, grid spacing 0.4
# H atom positions have been added when not included in the experimental data
# Generated hydrogen atom positions removed from atoms on special positions
#
###############################################################################

data_ZAXSAV
_chemical_formula_moiety         '(C48 H54 N8 O18 Tb2)n'
_symmetry_cell_setting           triclinic
_symmetry_space_group_name_H-M   'P 1'
_symmetry_Int_Tables_number      1
_space_group_name_Hall           'P 1'
loop_
_symmetry_equiv_pos_site_id
_symmetry_equiv_pos_as_xyz
1 x,y,z
_cell_length_a                   9.7799(5)
_cell_length_b                   11.5661(7)
_cell_length_c                   16.7597(10)
_cell_angle_alpha                105.886(2)
_cell_angle_beta                 100.772(2)
_cell_angle_gamma                100.290(2)
_cell_volume                     1737.47
loop_
_atom_site_label
_atom_site_type_symbol
_atom_site_fract_x
_atom_site_fract_y
_atom_site_fract_z
_atom_site_U_iso_or_equiv
_atom_site_thermal_displace_type
C19 C 0.7047(6) 0.0299(6) 0.1167(3) 0.0212 Uani
C20 C 0.8171(6) 0.1289(6) 0.1697(4) 0.0238 Uani
H17 H 0.8959 0.1550 0.1498 0.0290 Uiso
C21 C 0.8111(6) 0.1883(5) 0.2523(3) 0.0171 Uani
H18 H 0.8867 0.2541 0.2877 0.0210 Uiso
C22 C 0.6813(5) 0.2185(5) 0.3715(3) 0.0111 Uani
C23 C 0.6929(6) 0.1510(5) 0.2836(3) 0.0149 Uani
C24 C 0.5818(6) 0.0499(5) 0.2300(3) 0.0188 Uani
H19 H 0.5034 0.0229 0.2500 0.0230 Uiso
O7 O 0.7779(4) 0.3181(3) 0.4141(2) 0.0116 Uani
O8 O 0.5804(4) 0.1758(4) 0.3987(2) 0.0191 Uani
Tb8 Tb 0.75952(2) 0.52032(2) 0.492943(14) 0.0065 Uani
Tb1 Tb 0.24048(2) 0.47968(2) 0.507057(14) 0.0065 Uani
C1 C 0.5878(5) 0.6244(5) 0.6422(3) 0.0095 Uani
C3 C 0.6011(5) 0.6945(5) 0.7339(3) 0.0124 Uani
C5 C 0.2708(7) 0.2471(6) 0.5893(4) 0.0296 Uani
H1 H 0.1790 0.1981 0.5608 0.0350 Uiso
C6 C 0.7243(6) 0.7874(5) 0.7817(3) 0.0178 Uani
H2 H 0.7996 0.8053 0.7569 0.0220 Uiso
C7 C 0.1137(7) 0.5085(8) 0.2528(4) 0.0345 Uani
H3 H 0.1897 0.5071 0.2949 0.0410 Uiso
C8 C 0.7344(6) 0.8533(5) 0.8667(4) 0.0206 Uani
H4 H 0.8146 0.9172 0.8983 0.0250 Uiso
C9 C 0.1310(7) 0.5018(8) 0.1715(4) 0.0394 Uani
H5 H 0.2193 0.4965 0.1597 0.0470 Uiso
C10 C 0.4630(9) 0.3252(8) 0.7208(5) 0.0496 Uani
H6 H 0.5225 0.2790 0.7443 0.0740 Uiso
H7 H 0.4442 0.3863 0.7666 0.0740 Uiso
H8 H 0.5112 0.3657 0.6873 0.0740 Uiso
C11 C 0.6226(6) 0.8222(6) 0.9036(3) 0.0207 Uani
C12 C 0.0214(7) 0.5030(6) 0.1089(4) 0.0225 Uani
C13 C 0.2435(11) 0.1648(10) 0.7048(7) 0.0713 Uani
H9 H 0.1655 0.1045 0.6613 0.1070 Uiso
H10 H 0.2061 0.2161 0.7465 0.1070 Uiso
H11 H 0.3046 0.1231 0.7322 0.1070 Uiso
C14 C 0.5013(7) 0.7275(6) 0.8567(4) 0.0244 Uani
H12 H 0.4280 0.7066 0.8823 0.0290 Uiso
C16 C 0.4907(6) 0.6645(5) 0.7717(3) 0.0183 Uani
H14 H 0.4093 0.6020 0.7399 0.0210 Uiso
N1 N 0.6160(6) 0.8829(5) 0.9898(3) 0.0273 Uani
N2 N 0.0522(6) 0.4974(5) 0.0279(3) 0.0283 Uani
N4 N 0.3252(6) 0.2402(6) 0.6657(4) 0.0350 Uani
O1 O 0.4671(4) 0.5542(3) 0.5998(2) 0.0132 Uani
O2 O 0.0582(4) 0.5154(3) 0.4148(2) 0.0138 Uani
O3 O 0.3302(4) 0.3124(4) 0.5520(2) 0.0193 Uani
O5 O 0.0534(4) 0.2939(3) 0.4514(2) 0.0154 Uani
O6 O 0.3743(4) 0.6345(3) 0.4557(2) 0.0122 Uani
O9 O 0.6964(4) 0.6363(3) 0.6138(2) 0.0155 Uani
O20 O 0.1613(4) 0.4628(4) 0.6297(2) 0.0152 Uani
O22 O 0.2221(4) 0.6819(3) 0.5859(2) 0.0116 Uani
O24 O 0.3036(4) 0.3637(3) 0.3862(2) 0.0155 Uani
H41 H 0.0197117 0.273306 0.499325 . .
C25 C 0.0399(5) 0.4761(4) 0.6419(3) 0.0103 Uani
C26 C 0.0170(6) 0.4830(5) 0.7290(3) 0.0125 Uani
C30 C 0.1104(8) 0.4868(8) 0.8734(4) 0.0381 Uani
H22 H 0.1857 0.4846 0.9156 0.0460 Uiso
C31 C 0.1278(7) 0.4801(7) 0.7933(4) 0.0333 Uani
H23 H 0.2158 0.4735 0.7815 0.0400 Uiso
H43 H 0.0357078 0.688581 0.533168 . .
C2 C 0.9601(5) 0.5239(4) 0.3581(3) 0.0103 Uani
C4 C 0.9830(6) 0.5170(5) 0.2710(3) 0.0125 Uani
C15 C 0.8896(8) 0.5132(8) 0.1266(4) 0.0381 Uani
H13 H 0.8143 0.5154 0.0844 0.0460 Uiso
C17 C 0.8722(7) 0.5199(7) 0.2067(4) 0.0333 Uani
H15 H 0.7842 0.5265 0.2185 0.0400 Uiso
O4 O 0.8387(4) 0.5372(4) 0.3703(2) 0.0152 Uani
H42 H 0.972292 0.306065 0.411674 . .
C27 C 0.8863(7) 0.4915(8) 0.7472(4) 0.0345 Uani
H20 H 0.8103 0.4929 0.7051 0.0410 Uiso
C28 C 0.8690(7) 0.4982(8) 0.8285(4) 0.0394 Uani
H21 H 0.7807 0.5035 0.8403 0.0470 Uiso
C29 C 0.9786(7) 0.4970(6) 0.8911(4) 0.0225 Uani
N5 N 0.9478(6) 0.5026(5) 0.9721(3) 0.0283 Uani
O10 O 0.9418(4) 0.4846(3) 0.5852(2) 0.0138 Uani
C32 C 0.4122(5) 0.3756(5) 0.3578(3) 0.0095 Uani
C33 C 0.3989(5) 0.3055(5) 0.2661(3) 0.0124 Uani
C34 C 0.7292(7) 0.7529(6) 0.4107(4) 0.0296 Uani
H24 H 0.8210 0.8019 0.4392 0.0350 Uiso
C35 C 0.2757(6) 0.2126(5) 0.2183(3) 0.0178 Uani
H25 H 0.2004 0.1947 0.2431 0.0220 Uiso
C36 C 0.2656(6) 0.1467(5) 0.1333(4) 0.0206 Uani
H26 H 0.1854 0.0828 0.1017 0.0250 Uiso
C37 C 0.5370(9) 0.6748(8) 0.2792(5) 0.0496 Uani
H27 H 0.4775 0.7210 0.2557 0.0740 Uiso
H28 H 0.5558 0.6137 0.2334 0.0740 Uiso
H29 H 0.4888 0.6343 0.3127 0.0740 Uiso
C38 C 0.3774(6) 0.1778(6) 0.0964(3) 0.0207 Uani
C39 C 0.7565(11) 0.8352(10) 0.2952(7) 0.0713 Uani
H30 H 0.8345 0.8955 0.3387 0.1070 Uiso
H31 H 0.7939 0.7839 0.2535 0.1070 Uiso
H32 H 0.6954 0.8769 0.2678 0.1070 Uiso
C40 C 0.4987(7) 0.2725(6) 0.1433(4) 0.0244 Uani
H33 H 0.5720 0.2934 0.1177 0.0290 Uiso
C41 C 0.5093(6) 0.3355(5) 0.2283(3) 0.0183 Uani
H34 H 0.5907 0.3980 0.2601 0.0210 Uiso
N6 N 0.3840(6) 0.1171(5) 0.0102(3) 0.0273 Uani
N8 N 0.6748(6) 0.7598(6) 0.3343(4) 0.0350 Uani
O12 O 0.5329(4) 0.4458(3) 0.4002(2) 0.0132 Uani
O13 O 0.6698(4) 0.6876(4) 0.4480(2) 0.0193 Uani
O14 O 0.9466(4) 0.7061(3) 0.5486(2) 0.0154 Uani
O15 O 0.6257(4) 0.3655(3) 0.5443(2) 0.0122 Uani
H44 H 0.917782 0.769532 0.523875 . .
C43 C 0.2953(6) 0.9701(6) 0.8833(3) 0.0212 Uani
C44 C 0.1829(6) 0.8711(6) 0.8303(4) 0.0238 Uani
H36 H 0.1041 0.8450 0.8502 0.0290 Uiso
C45 C 0.1889(6) 0.8117(5) 0.7477(3) 0.0171 Uani
H37 H 0.1133 0.7459 0.7123 0.0210 Uiso
C46 C 0.3187(5) 0.7815(5) 0.6285(3) 0.0111 Uani
C47 C 0.3071(6) 0.8490(5) 0.7164(3) 0.0149 Uani
C48 C 0.4182(6) 0.9501(5) 0.7700(3) 0.0188 Uani
H38 H 0.4966 0.9771 0.7500 0.0230 Uiso
O17 O 0.4196(4) 0.8242(4) 0.6013(2) 0.0191 Uani
H44_2 H 0.082218 0.230468 0.476125 . .
H42_2 H 0.0277082 0.693935 0.588326 . .
H43_2 H 0.964292 0.311419 0.466832 . .
H41_2 H 0.980288 0.726694 0.500675 . .
C18 C 0.5877(6) 0.9897(6) 0.1476(4) 0.0227 Uani
H16 H 0.5137 0.9223 0.1126 0.0270 Uiso
N3 N 0.7187(5) 0.9740(5) 0.0317(3) 0.0239 Uani
C42 C 0.4123(6) 0.0103(6) 0.8524(4) 0.0227 Uani
H35 H 0.4863 0.0777 0.8874 0.0270 Uiso
N7 N 0.2813(5) 0.0260(5) 0.9683(3) 0.0239 Uani
loop_
_atom_site_aniso_label
_atom_site_aniso_U_11
_atom_site_aniso_U_22
_atom_site_aniso_U_33
_atom_site_aniso_U_23
_atom_site_aniso_U_13
_atom_site_aniso_U_12
C19 0.025 0.027 0.007 -0.004 0.003 0.011
C20 0.019 0.031 0.014 -0.004 0.007 0.002
C21 0.015 0.018 0.013 -0.002 0.002 0.003
C22 0.013 0.01 0.008 0.0015 0.0009 0.001
C23 0.015 0.018 0.012 0.003 0.003 0.008
C24 0.02 0.019 0.014 -0.001 0.005 0.005
O7 0.0123 0.0109 0.0111 0.0017 0.004 0.0029
O8 0.021 0.015 0.0146 -0.003 0.0067 -0.0026
Tb8 0.0069 0.00976 0.0016 -0.00044 0.00148 0.00181
Tb1 0.0069 0.00976 0.0016 -0.00044 0.00148 0.00181
C1 0.013 0.009 0.007 0.0021 0.0039 0.0033
C3 0.014 0.013 0.008 0 0.002 0.004
C5 0.026 0.032 0.034 0.014 0.008 0.009
C6 0.013 0.022 0.013 0 0.003 0
C7 0.024 0.074 0.016 0.021 0.01 0.022
C8 0.016 0.021 0.014 -0.005 -0.002 0
C9 0.031 0.083 0.016 0.021 0.016 0.024
C10 0.048 0.065 0.037 0.019 0.002 0.021
C11 0.027 0.022 0.01 0 0.003 0.008
C12 0.03 0.024 0.015 0.008 0.01 0.003
C13 0.079 0.088 0.086 0.076 0.031 0.031
C14 0.026 0.029 0.014 0 0.011 0.001
C16 0.021 0.019 0.012 0.001 0.005 0.003
N1 0.027 0.033 0.012 -0.006 0.004 0.004
N2 0.04 0.038 0.009 0.009 0.014 0.004
N4 0.036 0.046 0.039 0.03 0.015 0.018
O1 0.0111 0.0165 0.0081 -0.0007 -0.0004 0.0037
O2 0.0119 0.02 0.0093 0.005 0.0018 0.0038
O3 0.017 0.025 0.022 0.013 0.0087 0.0075
O5 0.0097 0.0134 0.0187 0.0024 0.0005 -0.0006
O6 0.0132 0.0143 0.0127 0.0079 0.0054 0.0046
O9 0.0134 0.017 0.0133 -0.0004 0.0069 0.0008
O20 0.0173 0.021 0.0115 0.0067 0.0089 0.0075
O22 0.0123 0.0109 0.0111 0.0017 0.004 0.0029
O24 0.0134 0.017 0.0133 -0.0004 0.0069 0.0008
C25 0.015 0.006 0.006 -0.0013 0.0024 -0.0017
C26 0.016 0.014 0.009 0.004 0.007 0.003
C30 0.033 0.074 0.012 0.019 0.008 0.014
C31 0.024 0.068 0.02 0.02 0.014 0.023
C2 0.015 0.006 0.006 -0.0013 0.0024 -0.0017
C4 0.016 0.014 0.009 0.004 0.007 0.003
C15 0.033 0.074 0.012 0.019 0.008 0.014
C17 0.024 0.068 0.02 0.02 0.014 0.023
O4 0.0173 0.021 0.0115 0.0067 0.0089 0.0075
C27 0.024 0.074 0.016 0.021 0.01 0.022
C28 0.031 0.083 0.016 0.021 0.016 0.024
C29 0.03 0.024 0.015 0.008 0.01 0.003
N5 0.04 0.038 0.009 0.009 0.014 0.004
O10 0.0119 0.02 0.0093 0.005 0.0018 0.0038
C32 0.013 0.009 0.007 0.0021 0.0039 0.0033
C33 0.014 0.013 0.008 0 0.002 0.004
C34 0.026 0.032 0.034 0.014 0.008 0.009
C35 0.013 0.022 0.013 0 0.003 0
C36 0.016 0.021 0.014 -0.005 -0.002 0
C37 0.048 0.065 0.037 0.019 0.002 0.021
C38 0.027 0.022 0.01 0 0.003 0.008
C39 0.079 0.088 0.086 0.076 0.031 0.031
C40 0.026 0.029 0.014 0 0.011 0.001
C41 0.021 0.019 0.012 0.001 0.005 0.003
N6 0.027 0.033 0.012 -0.006 0.004 0.004
N8 0.036 0.046 0.039 0.03 0.015 0.018
O12 0.0111 0.0165 0.0081 -0.0007 -0.0004 0.0037
O13 0.017 0.025 0.022 0.013 0.0087 0.0075
O14 0.0097 0.0134 0.0187 0.0024 0.0005 -0.0006
O15 0.0132 0.0143 0.0127 0.0079 0.0054 0.0046
C43 0.025 0.027 0.007 -0.004 0.003 0.011
C44 0.019 0.031 0.014 -0.004 0.007 0.002
C45 0.015 0.018 0.013 -0.002 0.002 0.003
C46 0.013 0.01 0.008 0.0015 0.0009 0.001
C47 0.015 0.018 0.012 0.003 0.003 0.008
C48 0.02 0.019 0.014 -0.001 0.005 0.005
O17 0.021 0.015 0.0146 -0.003 0.0067 -0.0026
C18 0.017 0.026 0.013 -0.007 -0.001 0.001
N3 0.022 0.028 0.012 -0.007 0 0.007
C42 0.017 0.026 0.013 -0.007 -0.001 0.001
N7 0.022 0.028 0.012 -0.007 0 0.007
loop_
_geom_bond_atom_site_label_1
_geom_bond_atom_site_label_2
_geom_bond_site_symmetry_1
_geom_bond_site_symmetry_2
C20 C19 1_555 1_555
H17 C20 1_555 1_555
C21 C20 1_555 1_555
H18 C21 1_555 1_555
C22 C23 1_555 1_555
C23 C21 1_555 1_555
H19 C24 1_555 1_555
O7 C22 1_555 1_555
O8 C22 1_555 1_555
Tb8 O7 1_555 1_555
C23 C24 1_555 1_555
Tb1 O1 1_555 1_555
C1 C3 1_555 1_555
C3 C6 1_555 1_555
C5 H1 1_555 1_555
C6 H2 1_555 1_555
C7 H3 1_555 1_555
C8 C6 1_555 1_555
H4 C8 1_555 1_555
C9 C7 1_555 1_555
H5 C9 1_555 1_555
C10 H6 1_555 1_555
H7 C10 1_555 1_555
H8 C10 1_555 1_555
C11 C8 1_555 1_555
C12 C9 1_555 1_555
C13 H9 1_555 1_555
H10 C13 1_555 1_555
H11 C13 1_555 1_555
C14 C11 1_555 1_555
H12 C14 1_555 1_555
C16 C3 1_555 1_555
H14 C16 1_555 1_555
N1 C11 1_555 1_555
N2 C12 1_555 1_555
N4 C5 1_555 1_555
O1 C1 1_555 1_555
O2 Tb1 1_555 1_555
O3 Tb1 1_555 1_555
O5 Tb1 1_555 1_555
O6 Tb1 1_555 1_555
O9 C1 1_555 1_555
Tb8 O9 1_555 1_555
O20 Tb1 1_555 1_555
O22 Tb1 1_555 1_555
O24 Tb1 1_555 1_555
C5 O3 1_555 1_555
C10 N4 1_555 1_555
C13 N4 1_555 1_555
C14 C16 1_555 1_555
O5 H41 1_555 1_555
C25 C26 1_555 1_555
H22 C30 1_555 1_555
C31 C26 1_555 1_555
H23 C31 1_555 1_555
O20 C25 1_555 1_555
C30 C31 1_555 1_555
C2 C4 1_555 1_555
H13 C15 1_555 1_555
C17 C4 1_555 1_555
H15 C17 1_555 1_555
O4 C2 1_555 1_555
Tb8 O4 1_555 1_555
C15 C17 1_555 1_555
C27 H20 1_555 1_555
C28 C27 1_555 1_555
H21 C28 1_555 1_555
C29 C28 1_555 1_555
Tb8 O10 1_555 1_555
C32 C33 1_555 1_555
C33 C35 1_555 1_555
C34 H24 1_555 1_555
C35 H25 1_555 1_555
C36 C35 1_555 1_555
H26 C36 1_555 1_555
C37 H27 1_555 1_555
H28 C37 1_555 1_555
H29 C37 1_555 1_555
C38 C36 1_555 1_555
C39 H30 1_555 1_555
H31 C39 1_555 1_555
H32 C39 1_555 1_555
C40 C38 1_555 1_555
H33 C40 1_555 1_555
C41 C33 1_555 1_555
H34 C41 1_555 1_555
N6 C38 1_555 1_555
N8 C34 1_555 1_555
O12 Tb8 1_555 1_555
O13 Tb8 1_555 1_555
O14 Tb8 1_555 1_555
O15 Tb8 1_555 1_555
O24 C32 1_555 1_555
C29 N5 1_555 1_555
C32 O12 1_555 1_555
C34 O13 1_555 1_555
C37 N8 1_555 1_555
C39 N8 1_555 1_555
C40 C41 1_555 1_555
O14 H44 1_555 1_555
C44 C43 1_555 1_555
H36 C44 1_555 1_555
C45 C44 1_555 1_555
H37 C45 1_555 1_555
C46 C47 1_555 1_555
C47 C45 1_555 1_555
H38 C48 1_555 1_555
O22 C46 1_555 1_555
O17 C46 1_555 1_555
C47 C48 1_555 1_555
O5 H44_2 1_555 1_555
O14 H41_2 1_555 1_555
C18 H16 1_555 1_555
C42 H35 1_555 1_555

#END
