
###############################################################################
#
# This file contains modified crystal structure data generated from the
# MOF subset of the Cambridge Structural Database (CSD) v543 
# hosted by the Cambridge Crystallographic Data Centre (CCDC).
#
# This work is licensed under the Creative Commons
# Attribution-NonCommercial-ShareAlike 4.0 International License.
# To view a copy of this license, visit
# http://creativecommons.org/licenses/by-nc-sa/4.0/
# or send a letter to
# Creative Commons, PO Box 1866, Mountain View, CA 94042, USA.
#
# CIF created using the CSD Python API on 29 September 2022
# The structure has been converted into the P1 space group
# The structure has a 3D framework
# The original CSD entry ZAYPOH is in the monoclinic crystal system
# The framework has been calculated to contain at least 10.0% void space
# The void calculation uses a probe of radius 1.32A, grid spacing 0.4
# The framework is charged, counterions have been retained in the structure
# H atom positions have been added when not included in the experimental data
#
###############################################################################

data_ZAYPOH
_chemical_formula_moiety         '(C68 H52 Ag2 Mn4 N24 O16 2-)n'
_symmetry_cell_setting           triclinic
_symmetry_space_group_name_H-M   'P 1'
_symmetry_Int_Tables_number      1
_space_group_name_Hall           'P 1'
loop_
_symmetry_equiv_pos_site_id
_symmetry_equiv_pos_as_xyz
1 x,y,z
_cell_length_a                   10.2630(5)
_cell_length_b                   14.9415(7)
_cell_length_c                   14.3242(8)
_cell_angle_alpha                90
_cell_angle_beta                 103.092(5)
_cell_angle_gamma                90
_cell_volume                     2139.45
loop_
_atom_site_label
_atom_site_type_symbol
_atom_site_fract_x
_atom_site_fract_y
_atom_site_fract_z
C10 C 0.0003(10) 0.2423(7) 0.2193(8)
H7 H 0.0508 0.2197 0.1783
C11 C 0.0436(11) 0.3142(7) 0.2761(9)
H8 H 0.1263 0.3387 0.2742
C13 C 0.1380(10) 0.0150(7) 0.1530(7)
H9 H 0.1118 0.0112 0.0866
C14 C 0.0415(9) 0.0350(6) 0.2028(7)
C15 C 0.0793(11) 0.0388(7) 0.3027(7)
H10 H 0.0170 0.0504 0.3393
C16 C 0.2110(11) 0.0247(9) 0.3449(8)
H11 H 0.2402 0.0272 0.4112
C17 C 0.3004(10) 0.0069(8) 0.2887(8)
N6 N 0.2669(9) 0.0007(6) 0.1941(7)
Ag4 Ag 0.05565(8) 0.48634(5) 0.40291(6)
H12 H 0.3898 0.9987 0.3191
Ag3 Ag 0.44435(8) 0.98634(5) 0.09709(6)
C1 C 0.3688(10) 0.1940(7) 0.0755(8)
H1 H 0.2858 0.1687 0.0751
C2 C 0.3750(12) 0.2844(8) 0.0624(9)
H2 H 0.2979 0.3191 0.0531
C3 C 0.4973(12) 0.3236(7) 0.0630(9)
H3 H 0.5039 0.3850 0.0542
C4 C 0.6092(11) 0.2698(7) 0.0768(7)
H4 H 0.6926 0.2943 0.0771
C5 C 0.5958(9) 0.1782(6) 0.0904(7)
C6 C 0.7086(9) 0.1161(6) 0.1036(6)
C7 C 0.8596(10) 0.3147(7) 0.3386(7)
H5 H 0.8094 0.3407 0.3779
C8 C 0.8099(9) 0.2375(6) 0.2863(7)
H6 H 0.7315 0.2102 0.2939
C9 C 0.8804(9) 0.2036(6) 0.2237(6)
C12 C 0.9030(9) 0.0538(6) 0.1496(7)
N1 N 0.7064(8) 0.0410(5) 0.0562(6)
N2 N 0.8307(8) 0.0009(5) 0.0859(6)
N3 N 0.8312(7) 0.1274(5) 0.1641(5)
N4 N 0.9749(8) 0.3516(5) 0.3341(6)
N5 N 0.4759(8) 0.1397(5) 0.0890(6)
Ag1 Ag 0.55565(8) 0.01366(5) 0.90291(6)
N7 N 0.4749(8) 0.1484(5) 0.8341(6)
N8 N 0.5241(8) 0.8603(5) 0.9110(6)
N9 N 0.7331(9) 0.9993(6) 0.8059(7)
C1_2 C 0.1312(10) 0.6940(7) 0.4245(8)
H1_2 H 0.2142 0.6687 0.4249
C2_2 C 0.1250(12) 0.7844(8) 0.4376(9)
H2_2 H 0.2021 0.8191 0.4469
C3_2 C 0.0027(12) 0.8236(7) 0.4370(9)
N5_2 N 0.0241(8) 0.6397(5) 0.4110(6)
N7_2 N 0.0251(8) 0.6484(5) 0.6659(6)
Ag1_2 Ag 0.94435(8) 0.51366(5) 0.59709(6)
H3_2 H 0.9961 0.8850 0.4458
C4_2 C 0.8908(11) 0.7698(7) 0.4232(7)
H4_2 H 0.8074 0.7943 0.4229
C5_2 C 0.9042(9) 0.6782(6) 0.4096(7)
C6_2 C 0.7914(9) 0.6161(6) 0.3964(6)
C7_2 C 0.6404(10) 0.8147(7) 0.1614(7)
H5_2 H 0.6906 0.8407 0.1221
C8_2 C 0.6901(9) 0.7375(6) 0.2137(7)
H6_2 H 0.7685 0.7102 0.2061
C9_2 C 0.6196(9) 0.7036(6) 0.2763(6)
C10_2 C 0.4997(10) 0.7423(7) 0.2807(8)
H7_2 H 0.4492 0.7197 0.3217
C11_2 C 0.4564(11) 0.8142(7) 0.2239(9)
H8_2 H 0.3737 0.8387 0.2258
C12_2 C 0.5970(9) 0.5538(6) 0.3504(7)
C13_2 C 0.3620(10) 0.5150(7) 0.3470(7)
H9_2 H 0.3882 0.5112 0.4134
C14_2 C 0.4585(9) 0.5350(6) 0.2972(7)
C15_2 C 0.4207(11) 0.5388(7) 0.1973(7)
H10_2 H 0.4830 0.5504 0.1607
C16_2 C 0.2890(11) 0.5247(9) 0.1551(8)
H11_2 H 0.2598 0.5272 0.0888
C17_2 C 0.1996(10) 0.5069(8) 0.2113(8)
H12_2 H 0.1102 0.4987 0.1809
N1_2 N 0.7936(8) 0.5410(5) 0.4438(6)
N2_2 N 0.6693(8) 0.5009(5) 0.4141(6)
N3_2 N 0.6688(7) 0.6274(5) 0.3359(5)
N4_2 N 0.5251(8) 0.8516(5) 0.1659(6)
N6_2 N 0.2331(9) 0.5007(6) 0.3059(7)
N8_2 N 0.9759(8) 0.3603(5) 0.5890(6)
N9_2 N 0.7669(9) 0.4993(6) 0.6941(7)
C1_3 C 0.6312(10) 0.8060(7) 0.9245(8)
H1_3 H 0.7142 0.8313 0.9249
C2_3 C 0.6250(12) 0.7156(8) 0.9376(9)
H2_3 H 0.7021 0.6809 0.9469
C3_3 C 0.5027(12) 0.6764(7) 0.9370(9)
H3_3 H 0.4961 0.6150 0.9458
C4_3 C 0.3908(11) 0.7302(7) 0.9232(7)
H4_3 H 0.3074 0.7057 0.9229
C5_3 C 0.4042(9) 0.8218(6) 0.9096(7)
C6_3 C 0.2914(9) 0.8839(6) 0.8964(6)
C7_3 C 0.1404(10) 0.6853(7) 0.6614(7)
H5_3 H 0.1906 0.6593 0.6221
C8_3 C 0.1901(9) 0.7625(6) 0.7137(7)
H6_3 H 0.2685 0.7898 0.7061
C9_3 C 0.1196(9) 0.7964(6) 0.7763(6)
C12_3 C 0.0970(9) 0.9462(6) 0.8504(7)
N1_3 N 0.2936(8) 0.9590(5) 0.9438(6)
N2_3 N 0.1693(8) 0.9991(5) 0.9141(6)
N3_3 N 0.1688(7) 0.8726(5) 0.8359(5)
H12_3 H 0.6102 0.0013 0.6809
C10_3 C 0.9997(10) 0.7577(7) 0.7807(8)
H7_3 H 0.9492 0.7803 0.8217
C11_3 C 0.9564(11) 0.6858(7) 0.7239(9)
H8_3 H 0.8737 0.6613 0.7258
C13_3 C 0.8620(10) 0.9850(7) 0.8470(7)
H9_3 H 0.8882 0.9888 0.9134
C14_3 C 0.9585(9) 0.9650(6) 0.7972(7)
C15_3 C 0.9207(11) 0.9612(7) 0.6973(7)
H10_3 H 0.9830 0.9496 0.6607
C16_3 C 0.7890(11) 0.9753(9) 0.6551(8)
H11_3 H 0.7598 0.9728 0.5888
C17_3 C 0.6996(10) 0.9931(8) 0.7113(8)
H3_4 H 0.0039 0.1150 0.5542
C4_4 C 0.1092(11) 0.2302(7) 0.5768(7)
H4_4 H 0.1926 0.2057 0.5771
C5_4 C 0.0958(9) 0.3218(6) 0.5904(7)
C6_4 C 0.2086(9) 0.3839(6) 0.6036(6)
C7_4 C 0.3596(10) 0.1853(7) 0.8386(7)
H5_4 H 0.3094 0.1593 0.8779
C8_4 C 0.3099(9) 0.2625(6) 0.7863(7)
H6_4 H 0.2315 0.2898 0.7939
C9_4 C 0.3804(9) 0.2964(6) 0.7237(6)
C10_4 C 0.5003(10) 0.2577(7) 0.7193(8)
H7_4 H 0.5508 0.2803 0.6783
C11_4 C 0.5436(11) 0.1858(7) 0.7761(9)
H8_4 H 0.6263 0.1613 0.7742
C12_4 C 0.4030(9) 0.4462(6) 0.6496(7)
C13_4 C 0.6380(10) 0.4850(7) 0.6530(7)
H9_4 H 0.6118 0.4888 0.5866
C14_4 C 0.5415(9) 0.4650(6) 0.7028(7)
C15_4 C 0.5793(11) 0.4612(7) 0.8027(7)
H10_4 H 0.5170 0.4496 0.8393
C16_4 C 0.7110(11) 0.4753(9) 0.8449(8)
H11_4 H 0.7402 0.4728 0.9112
C17_4 C 0.8004(10) 0.4931(8) 0.7887(8)
H12_4 H 0.8898 0.5013 0.8191
N1_4 N 0.2064(8) 0.4590(5) 0.5562(6)
N2_4 N 0.3307(8) 0.4991(5) 0.5859(6)
N3_4 N 0.3312(7) 0.3726(5) 0.6641(5)
C1_4 C 0.8688(10) 0.3060(7) 0.5755(8)
H1_4 H 0.7858 0.3313 0.5751
C2_4 C 0.8750(12) 0.2156(8) 0.5624(9)
H2_4 H 0.7979 0.1809 0.5531
C3_4 C 0.9973(12) 0.1764(7) 0.5630(9)
O3 O 0.2127(17) 0.0532(12) 0.7114(10)
O4 O 0.3644(10) 0.0734(7) 0.5909(7)
H13 H 0.300387 0.123066 0.569273
Mn1 Mn 0.2939(2) 0.99803(14) 0.63667(15)
O1 O 0.1704(12) 0.9561(10) 0.5699(9)
O2 O 0.3910(11) 0.9400(9) 0.7118(10)
Mn1_2 Mn 0.2061(2) 0.49803(14) 0.86333(15)
O1_2 O 0.3296(12) 0.4561(10) 0.9301(9)
O2_2 O 0.1090(11) 0.4400(9) 0.7882(10)
O3_2 O 0.2873(17) 0.5532(12) 0.7886(10)
O4_2 O 0.1356(10) 0.5734(7) 0.9091(7)
H13_2 H 0.199613 0.623066 0.930727
Mn1_3 Mn 0.7061(2) 0.00197(14) 0.36333(15)
O1_3 O 0.8296(12) 0.0439(10) 0.4301(9)
O2_3 O 0.6090(11) 0.0600(9) 0.2882(10)
O3_3 O 0.7873(17) 0.9468(12) 0.2886(10)
O4_3 O 0.6356(10) 0.9266(7) 0.4091(7)
H13_3 H 0.699613 0.876934 0.430727
Mn1_4 Mn 0.7939(2) 0.50197(14) 0.13667(15)
O1_4 O 0.6704(12) 0.5439(10) 0.0699(9)
O2_4 O 0.8910(11) 0.5600(9) 0.2118(10)
O3_4 O 0.7127(17) 0.4468(12) 0.2114(10)
O4_4 O 0.8644(10) 0.4266(7) 0.0909(7)
H13_4 H 0.800387 0.376934 0.0692725
loop_
_geom_bond_atom_site_label_1
_geom_bond_atom_site_label_2
_geom_bond_site_symmetry_1
_geom_bond_site_symmetry_2
H7 C10 1_555 1_555
C11 C10 1_555 1_555
H8 C11 1_555 1_555
C13 H9 1_555 1_555
C14 C13 1_555 1_555
C15 C14 1_555 1_555
H10 C15 1_555 1_555
C16 C15 1_555 1_555
H11 C16 1_555 1_555
C17 C16 1_555 1_555
N6 C13 1_555 1_555
C17 N6 1_555 1_555
C1 H1 1_555 1_555
C2 C1 1_555 1_555
H2 C2 1_555 1_555
C3 C2 1_555 1_555
H3 C3 1_555 1_555
C4 C3 1_555 1_555
H4 C4 1_555 1_555
C5 C4 1_555 1_555
C6 C5 1_555 1_555
C7 H5 1_555 1_555
C8 C7 1_555 1_555
H6 C8 1_555 1_555
C9 C8 1_555 1_555
N1 C6 1_555 1_555
N2 C12 1_555 1_555
N3 C6 1_555 1_555
N4 C7 1_555 1_555
N5 C1 1_555 1_555
C5 N5 1_555 1_555
C9 N3 1_555 1_555
C12 N3 1_555 1_555
N1 N2 1_555 1_555
N7 Ag1 1_555 1_555
C1_2 H1_2 1_555 1_555
C2_2 C1_2 1_555 1_555
H2_2 C2_2 1_555 1_555
C3_2 C2_2 1_555 1_555
N5_2 C1_2 1_555 1_555
Ag4 N5_2 1_555 1_555
Ag1_2 N1_2 1_555 1_555
H4_2 C4_2 1_555 1_555
C5_2 C4_2 1_555 1_555
C6_2 C5_2 1_555 1_555
C7_2 H5_2 1_555 1_555
C8_2 C7_2 1_555 1_555
H6_2 C8_2 1_555 1_555
C9_2 C8_2 1_555 1_555
C10_2 C9_2 1_555 1_555
H7_2 C10_2 1_555 1_555
C11_2 C10_2 1_555 1_555
H8_2 C11_2 1_555 1_555
C12_2 C14_2 1_555 1_555
C13_2 H9_2 1_555 1_555
C14_2 C13_2 1_555 1_555
C15_2 C14_2 1_555 1_555
H10_2 C15_2 1_555 1_555
C16_2 C15_2 1_555 1_555
H11_2 C16_2 1_555 1_555
C17_2 C16_2 1_555 1_555
H12_2 C17_2 1_555 1_555
N1_2 C6_2 1_555 1_555
N2_2 C12_2 1_555 1_555
N3_2 C6_2 1_555 1_555
N4_2 C7_2 1_555 1_555
N6_2 C13_2 1_555 1_555
Ag4 N6_2 1_555 1_555
Ag3 N4_2 1_555 1_555
N8_2 Ag1_2 1_555 1_555
N9_2 Ag1_2 1_555 1_555
C9_2 N3_2 1_555 1_555
C11_2 N4_2 1_555 1_555
C12_2 N3_2 1_555 1_555
C17_2 N6_2 1_555 1_555
N1_2 N2_2 1_555 1_555
C1_3 H1_3 1_555 1_555
C2_3 C1_3 1_555 1_555
H2_3 C2_3 1_555 1_555
C3_3 C2_3 1_555 1_555
H3_3 C3_3 1_555 1_555
C4_3 C3_3 1_555 1_555
H4_3 C4_3 1_555 1_555
C5_3 C4_3 1_555 1_555
C6_3 C5_3 1_555 1_555
C7_3 H5_3 1_555 1_555
C8_3 C7_3 1_555 1_555
H6_3 C8_3 1_555 1_555
C9_3 C8_3 1_555 1_555
N1_3 C6_3 1_555 1_555
N2_3 C12_3 1_555 1_555
N3_3 C6_3 1_555 1_555
N7_2 C7_3 1_555 1_555
N8 C1_3 1_555 1_555
C5_3 N8 1_555 1_555
C9_3 N3_3 1_555 1_555
C12_3 N3_3 1_555 1_555
N1_3 N2_3 1_555 1_555
H7_3 C10_3 1_555 1_555
C11_3 C10_3 1_555 1_555
H8_3 C11_3 1_555 1_555
C13_3 H9_3 1_555 1_555
C14_3 C13_3 1_555 1_555
C15_3 C14_3 1_555 1_555
H10_3 C15_3 1_555 1_555
C16_3 C15_3 1_555 1_555
H11_3 C16_3 1_555 1_555
C17_3 C16_3 1_555 1_555
N9 C13_3 1_555 1_555
C17_3 N9 1_555 1_555
Ag4 N1_4 1_555 1_555
H4_4 C4_4 1_555 1_555
C5_4 C4_4 1_555 1_555
C6_4 C5_4 1_555 1_555
C7_4 H5_4 1_555 1_555
C8_4 C7_4 1_555 1_555
H6_4 C8_4 1_555 1_555
C9_4 C8_4 1_555 1_555
C10_4 C9_4 1_555 1_555
H7_4 C10_4 1_555 1_555
C11_4 C10_4 1_555 1_555
H8_4 C11_4 1_555 1_555
C12_4 C14_4 1_555 1_555
C13_4 H9_4 1_555 1_555
C14_4 C13_4 1_555 1_555
C15_4 C14_4 1_555 1_555
H10_4 C15_4 1_555 1_555
C16_4 C15_4 1_555 1_555
H11_4 C16_4 1_555 1_555
C17_4 C16_4 1_555 1_555
H12_4 C17_4 1_555 1_555
N1_4 C6_4 1_555 1_555
N2_4 C12_4 1_555 1_555
N3_4 C6_4 1_555 1_555
N7 C7_4 1_555 1_555
N9_2 C13_4 1_555 1_555
C9_4 N3_4 1_555 1_555
C11_4 N7 1_555 1_555
C12_4 N3_4 1_555 1_555
C17_4 N9_2 1_555 1_555
N1_4 N2_4 1_555 1_555
C1_4 H1_4 1_555 1_555
C2_4 C1_4 1_555 1_555
H2_4 C2_4 1_555 1_555
C3_4 C2_4 1_555 1_555
N8_2 C1_4 1_555 1_555
O4 H13 1_555 1_555
Mn1 O1 1_555 1_555
O2 Mn1 1_555 1_555
Mn1_2 O1_2 1_555 1_555
O2_2 Mn1_2 1_555 1_555
O3_2 Mn1_2 1_555 1_555
O4_2 Mn1_2 1_555 1_555
O4_2 H13_2 1_555 1_555
Mn1_3 O1_3 1_555 1_555
O2_3 Mn1_3 1_555 1_555
O4_3 H13_3 1_555 1_555
Mn1_4 O1_4 1_555 1_555
O2_4 Mn1_4 1_555 1_555
O3_4 Mn1_4 1_555 1_555
O4_4 Mn1_4 1_555 1_555
O4_4 H13_4 1_555 1_555

#END
