
###############################################################################
#
# This file contains modified crystal structure data generated from the
# MOF subset of the Cambridge Structural Database (CSD) v543 
# hosted by the Cambridge Crystallographic Data Centre (CCDC).
#
# This work is licensed under the Creative Commons
# Attribution-NonCommercial-ShareAlike 4.0 International License.
# To view a copy of this license, visit
# http://creativecommons.org/licenses/by-nc-sa/4.0/
# or send a letter to
# Creative Commons, PO Box 1866, Mountain View, CA 94042, USA.
#
# CIF created using the CSD Python API on 29 September 2022
# The structure has been converted into the P1 space group
# The structure has a 3D framework
# The original CSD entry ZAYWUU is in the monoclinic crystal system
# The framework has been calculated to contain at least 10.0% void space
# The void calculation uses a probe of radius 1.32A, grid spacing 0.4
# The framework is charged, counterions have been retained in the structure
#
###############################################################################

data_ZAYWUU
_chemical_formula_moiety         '(C68 H48 Ag4 N28 O12)n'
_symmetry_cell_setting           triclinic
_symmetry_space_group_name_H-M   'P 1'
_symmetry_Int_Tables_number      1
_space_group_name_Hall           'P 1'
loop_
_symmetry_equiv_pos_site_id
_symmetry_equiv_pos_as_xyz
1 x,y,z
_cell_length_a                   10.45578(18)
_cell_length_b                   14.5262(2)
_cell_length_c                   14.2658(3)
_cell_angle_alpha                90
_cell_angle_beta                 105.0179(19)
_cell_angle_gamma                90
_cell_volume                     2092.72
loop_
_atom_site_label
_atom_site_type_symbol
_atom_site_fract_x
_atom_site_fract_y
_atom_site_fract_z
H7 H 0.0255 0.7503 0.1472
C11 C 0.0295(3) 0.6539(2) 0.2499(3)
H8 H 0.1053 0.6250 0.2420
C13 C 0.1312(3) 0.9591(2) 0.1444(2)
H9 H 0.1015 0.9670 0.0776
C14 C 0.0387(3) 0.9434(2) 0.1957(2)
C15 C 0.0824(3) 0.9332(3) 0.2955(2)
H10 H 0.0226 0.9236 0.3328
C16 C 0.2165(3) 0.9377(3) 0.3384(3)
H11 H 0.2488 0.9311 0.4052
C17 C 0.3016(3) 0.9522(3) 0.2811(3)
H12 H 0.3919 0.9541 0.3106
N6 N 0.2612(3) 0.9638(2) 0.1851(2)
Ag2 Ag 0.43589(2) 0.995540(16) 0.095030(19)
Ag3 Ag 0.06411(2) 0.495540(16) 0.404970(19)
N8 N 0.5283(3) 0.11927(18) 0.1850(2)
Ag4 Ag 0.56411(2) 0.004460(16) 0.904970(19)
N7 N 0.3021(2) 0.04700(17) 0.94445(19)
C1 C 0.3684(3) 0.7826(2) 0.0605(3)
H1 H 0.2856 0.8062 0.0605
C2 C 0.3792(4) 0.6898(3) 0.0437(3)
H2 H 0.3052 0.6518 0.0325
C3 C 0.5003(4) 0.6547(3) 0.0437(3)
H3 H 0.5101 0.5923 0.0328
C4 C 0.6079(4) 0.7128(2) 0.0598(3)
H4 H 0.6909 0.6904 0.0590
C5 C 0.5902(3) 0.8050(2) 0.0772(2)
C6 C 0.7017(3) 0.8715(2) 0.0951(2)
C7 C 0.8638(3) 0.6624(2) 0.3258(2)
H5 H 0.8200 0.6380 0.3692
C8 C 0.8138(3) 0.7414(2) 0.2758(2)
H6 H 0.7410 0.7715 0.2875
C9 C 0.8749(3) 0.7741(2) 0.2083(2)
C10 C 0.9839(3) 0.7297(2) 0.1936(3)
C12 C 0.8977(3) 0.9325(2) 0.1445(2)
N1 N 0.6979(2) 0.95300(17) 0.05555(19)
N2 N 0.8231(3) 0.99256(16) 0.0872(2)
N3 N 0.8255(2) 0.85492(16) 0.15246(18)
N4 N 0.9717(3) 0.61927(18) 0.3150(2)
N5 N 0.4721(3) 0.84028(17) 0.0770(2)
C1_2 C 0.1316(3) 0.2826(2) 0.4395(3)
H1_2 H 0.2144 0.3062 0.4395
C2_2 C 0.1208(4) 0.1898(3) 0.4563(3)
H2_2 H 0.1948 0.1518 0.4675
N5_2 N 0.0279(3) 0.34028(17) 0.4230(2)
N7_2 N 0.1979(2) 0.54700(17) 0.55555(19)
N9 N 0.2388(3) 0.4638(2) 0.3149(2)
C3_2 C 0.9997(4) 0.1547(3) 0.4563(3)
H3_2 H 0.9899 0.0923 0.4672
C4_2 C 0.8921(4) 0.2128(2) 0.4402(3)
H4_2 H 0.8091 0.1904 0.4410
C5_2 C 0.9098(3) 0.3050(2) 0.4228(2)
C6_2 C 0.7983(3) 0.3715(2) 0.4049(2)
C7_2 C 0.6362(3) 0.1624(2) 0.1742(2)
H5_2 H 0.6800 0.1380 0.1308
C8_2 C 0.6862(3) 0.2414(2) 0.2242(2)
H6_2 H 0.7590 0.2715 0.2125
C9_2 C 0.6251(3) 0.2741(2) 0.2917(2)
C10_2 C 0.5161(3) 0.2297(2) 0.3064(3)
H7_2 H 0.4745 0.2503 0.3528
C11_2 C 0.4705(3) 0.1539(2) 0.2501(3)
H8_2 H 0.3947 0.1250 0.2580
C12_2 C 0.6023(3) 0.4325(2) 0.3555(2)
C13_2 C 0.3688(3) 0.4591(2) 0.3556(2)
H9_2 H 0.3985 0.4670 0.4224
C14_2 C 0.4613(3) 0.4434(2) 0.3043(2)
C15_2 C 0.4176(3) 0.4332(3) 0.2045(2)
H10_2 H 0.4774 0.4236 0.1672
C16_2 C 0.2835(3) 0.4377(3) 0.1616(3)
H11_2 H 0.2512 0.4311 0.0948
C17_2 C 0.1984(3) 0.4522(3) 0.2189(3)
H12_2 H 0.1081 0.4541 0.1894
N1_2 N 0.8021(2) 0.45300(17) 0.44445(19)
N2_2 N 0.6769(3) 0.49256(16) 0.4128(2)
N3_2 N 0.6745(2) 0.35492(16) 0.34754(18)
Ag4_2 Ag 0.93589(2) 0.504460(16) 0.595030(19)
C1_3 C 0.6316(3) 0.2174(2) 0.9395(3)
H1_3 H 0.7144 0.1938 0.9395
C2_3 C 0.6208(4) 0.3102(3) 0.9563(3)
H2_3 H 0.6948 0.3482 0.9675
C3_3 C 0.4997(4) 0.3453(3) 0.9563(3)
H3_3 H 0.4899 0.4077 0.9672
C4_3 C 0.3921(4) 0.2872(2) 0.9402(3)
H4_3 H 0.3091 0.3096 0.9410
C5_3 C 0.4098(3) 0.1950(2) 0.9228(2)
C6_3 C 0.2983(3) 0.1285(2) 0.9049(2)
C7_3 C 0.1362(3) 0.3376(2) 0.6742(2)
H5_3 H 0.1800 0.3620 0.6308
C8_3 C 0.1862(3) 0.2586(2) 0.7242(2)
H6_3 H 0.2590 0.2285 0.7125
C9_3 C 0.1251(3) 0.2259(2) 0.7917(2)
C10_3 C 0.0161(3) 0.2703(2) 0.8064(3)
C12_3 C 0.1023(3) 0.0675(2) 0.8555(2)
N2_3 N 0.1769(3) 0.00744(16) 0.9128(2)
N3_3 N 0.1745(2) 0.14508(16) 0.84754(18)
N4_2 N 0.0283(3) 0.38073(18) 0.6850(2)
N5_3 N 0.5279(3) 0.15972(17) 0.9230(2)
N9_2 N 0.7388(3) 0.0362(2) 0.8149(2)
N8_2 N 0.4717(3) 0.88073(18) 0.8150(2)
H7_3 H 0.9745 0.2497 0.8528
C11_3 C 0.9705(3) 0.3461(2) 0.7501(3)
H8_3 H 0.8947 0.3750 0.7580
C13_3 C 0.8688(3) 0.0409(2) 0.8556(2)
H9_3 H 0.8985 0.0330 0.9224
C14_3 C 0.9613(3) 0.0566(2) 0.8043(2)
C15_3 C 0.9176(3) 0.0668(3) 0.7045(2)
H10_3 H 0.9774 0.0764 0.6672
C16_3 C 0.7835(3) 0.0623(3) 0.6616(3)
H11_3 H 0.7512 0.0689 0.5948
C17_3 C 0.6984(3) 0.0478(3) 0.7189(3)
H12_3 H 0.6081 0.0459 0.6894
C3_4 C 0.0003(4) 0.8453(3) 0.5437(3)
H3_4 H 0.0101 0.9077 0.5328
C4_4 C 0.1079(4) 0.7872(2) 0.5598(3)
H4_4 H 0.1909 0.8096 0.5590
C5_4 C 0.0902(3) 0.6950(2) 0.5772(2)
C6_4 C 0.2017(3) 0.6285(2) 0.5951(2)
C7_4 C 0.3638(3) 0.8376(2) 0.8258(2)
H5_4 H 0.3200 0.8620 0.8692
C8_4 C 0.3138(3) 0.7586(2) 0.7758(2)
H6_4 H 0.2410 0.7285 0.7875
C9_4 C 0.3749(3) 0.7259(2) 0.7083(2)
C10_4 C 0.4839(3) 0.7703(2) 0.6936(3)
H7_4 H 0.5255 0.7497 0.6472
C11_4 C 0.5295(3) 0.8461(2) 0.7499(3)
H8_4 H 0.6053 0.8750 0.7420
C12_4 C 0.3977(3) 0.5675(2) 0.6445(2)
C13_4 C 0.6312(3) 0.5409(2) 0.6444(2)
H9_4 H 0.6015 0.5330 0.5776
C14_4 C 0.5387(3) 0.5566(2) 0.6957(2)
C15_4 C 0.5824(3) 0.5668(3) 0.7955(2)
H10_4 H 0.5226 0.5764 0.8328
C16_4 C 0.7165(3) 0.5623(3) 0.8384(3)
H11_4 H 0.7488 0.5689 0.9052
C17_4 C 0.8016(3) 0.5478(3) 0.7811(3)
H12_4 H 0.8919 0.5459 0.8106
N2_4 N 0.3231(3) 0.50744(16) 0.5872(2)
N3_4 N 0.3255(2) 0.64508(16) 0.65246(18)
N6_2 N 0.7612(3) 0.5362(2) 0.6851(2)
C1_4 C 0.8684(3) 0.7174(2) 0.5605(3)
H1_4 H 0.7856 0.6938 0.5605
C2_4 C 0.8792(4) 0.8102(3) 0.5437(3)
H2_4 H 0.8052 0.8482 0.5325
N5_4 N 0.9721(3) 0.65972(17) 0.5770(2)
N10 N 0.7958(3) 0.4729(2) 0.1425(3)
O1 O 0.8184(5) 0.5237(3) 0.0808(3)
O2 O 0.8729(3) 0.4140(2) 0.1818(3)
O3 O 0.6953(4) 0.4837(3) 0.1686(4)
O1_2 O 0.6816(5) 0.0237(3) 0.4192(3)
N10_2 N 0.7042(3) 0.9729(2) 0.3575(3)
O2_2 O 0.6271(3) 0.9140(2) 0.3182(3)
O3_2 O 0.8047(4) 0.9837(3) 0.3314(4)
N10_3 N 0.2042(3) 0.5271(2) 0.8575(3)
O1_3 O 0.1816(5) 0.4763(3) 0.9192(3)
O2_3 O 0.1271(3) 0.5860(2) 0.8182(3)
O3_3 O 0.3047(4) 0.5163(3) 0.8314(4)
N10_4 N 0.2958(3) 0.0271(2) 0.6425(3)
O2_4 O 0.3729(3) 0.0860(2) 0.6818(3)
O3_4 O 0.1953(4) 0.0163(3) 0.6686(4)
O1_4 O 0.3184(5) 0.9763(3) 0.5808(3)
loop_
_geom_bond_atom_site_label_1
_geom_bond_atom_site_label_2
_geom_bond_site_symmetry_1
_geom_bond_site_symmetry_2
H8 C11 1_555 1_555
C13 H9 1_555 1_555
C14 C13 1_555 1_555
C15 C14 1_555 1_555
H10 C15 1_555 1_555
C16 C15 1_555 1_555
H11 C16 1_555 1_555
C17 C16 1_555 1_555
H12 C17 1_555 1_555
N6 C13 1_555 1_555
Ag2 N6 1_555 1_555
C17 N6 1_555 1_555
Ag2 N5 1_555 1_555
C1 H1 1_555 1_555
C2 C1 1_555 1_555
H2 C2 1_555 1_555
C3 C2 1_555 1_555
H3 C3 1_555 1_555
C4 C3 1_555 1_555
H4 C4 1_555 1_555
C5 C4 1_555 1_555
C6 C5 1_555 1_555
C7 H5 1_555 1_555
C8 C7 1_555 1_555
H6 C8 1_555 1_555
C9 C8 1_555 1_555
C10 C9 1_555 1_555
N1 C6 1_555 1_555
N2 C12 1_555 1_555
N3 C6 1_555 1_555
N4 C7 1_555 1_555
N5 C1 1_555 1_555
C5 N5 1_555 1_555
C9 N3 1_555 1_555
C12 N3 1_555 1_555
N1 N2 1_555 1_555
Ag3 N5_2 1_555 1_555
C1_2 H1_2 1_555 1_555
C2_2 C1_2 1_555 1_555
H2_2 C2_2 1_555 1_555
N5_2 C1_2 1_555 1_555
N7_2 Ag3 1_555 1_555
N9 Ag3 1_555 1_555
H3_2 C3_2 1_555 1_555
C4_2 C3_2 1_555 1_555
H4_2 C4_2 1_555 1_555
C5_2 C4_2 1_555 1_555
C6_2 C5_2 1_555 1_555
C7_2 H5_2 1_555 1_555
C8_2 C7_2 1_555 1_555
H6_2 C8_2 1_555 1_555
C9_2 C8_2 1_555 1_555
C10_2 C9_2 1_555 1_555
H7_2 C10_2 1_555 1_555
C11_2 C10_2 1_555 1_555
H8_2 C11_2 1_555 1_555
C12_2 C14_2 1_555 1_555
C13_2 H9_2 1_555 1_555
C14_2 C13_2 1_555 1_555
C15_2 C14_2 1_555 1_555
H10_2 C15_2 1_555 1_555
C16_2 C15_2 1_555 1_555
H11_2 C16_2 1_555 1_555
C17_2 C16_2 1_555 1_555
H12_2 C17_2 1_555 1_555
N1_2 C6_2 1_555 1_555
N2_2 C12_2 1_555 1_555
N3_2 C6_2 1_555 1_555
N8 C7_2 1_555 1_555
N9 C13_2 1_555 1_555
Ag4_2 N1_2 1_555 1_555
C9_2 N3_2 1_555 1_555
C11_2 N8 1_555 1_555
C12_2 N3_2 1_555 1_555
C17_2 N9 1_555 1_555
N1_2 N2_2 1_555 1_555
Ag4 N5_3 1_555 1_555
C1_3 H1_3 1_555 1_555
C2_3 C1_3 1_555 1_555
H2_3 C2_3 1_555 1_555
C3_3 C2_3 1_555 1_555
H3_3 C3_3 1_555 1_555
C4_3 C3_3 1_555 1_555
H4_3 C4_3 1_555 1_555
C5_3 C4_3 1_555 1_555
C6_3 C5_3 1_555 1_555
C7_3 H5_3 1_555 1_555
C8_3 C7_3 1_555 1_555
H6_3 C8_3 1_555 1_555
C9_3 C8_3 1_555 1_555
C10_3 C9_3 1_555 1_555
N7 C6_3 1_555 1_555
N2_3 C12_3 1_555 1_555
N3_3 C6_3 1_555 1_555
N4_2 C7_3 1_555 1_555
N5_3 C1_3 1_555 1_555
N9_2 Ag4 1_555 1_555
C5_3 N5_3 1_555 1_555
C9_3 N3_3 1_555 1_555
C12_3 N3_3 1_555 1_555
N7 N2_3 1_555 1_555
H8_3 C11_3 1_555 1_555
C13_3 H9_3 1_555 1_555
C14_3 C13_3 1_555 1_555
C15_3 C14_3 1_555 1_555
H10_3 C15_3 1_555 1_555
C16_3 C15_3 1_555 1_555
H11_3 C16_3 1_555 1_555
C17_3 C16_3 1_555 1_555
H12_3 C17_3 1_555 1_555
N9_2 C13_3 1_555 1_555
C17_3 N9_2 1_555 1_555
H3_4 C3_4 1_555 1_555
C4_4 C3_4 1_555 1_555
H4_4 C4_4 1_555 1_555
C5_4 C4_4 1_555 1_555
C6_4 C5_4 1_555 1_555
C7_4 H5_4 1_555 1_555
C8_4 C7_4 1_555 1_555
H6_4 C8_4 1_555 1_555
C9_4 C8_4 1_555 1_555
C10_4 C9_4 1_555 1_555
H7_4 C10_4 1_555 1_555
C11_4 C10_4 1_555 1_555
H8_4 C11_4 1_555 1_555
C12_4 C14_4 1_555 1_555
C13_4 H9_4 1_555 1_555
C14_4 C13_4 1_555 1_555
C15_4 C14_4 1_555 1_555
H10_4 C15_4 1_555 1_555
C16_4 C15_4 1_555 1_555
H11_4 C16_4 1_555 1_555
C17_4 C16_4 1_555 1_555
H12_4 C17_4 1_555 1_555
N7_2 C6_4 1_555 1_555
N2_4 C12_4 1_555 1_555
N3_4 C6_4 1_555 1_555
N8_2 C7_4 1_555 1_555
N6_2 C13_4 1_555 1_555
Ag4_2 N6_2 1_555 1_555
C9_4 N3_4 1_555 1_555
C11_4 N8_2 1_555 1_555
C12_4 N3_4 1_555 1_555
C17_4 N6_2 1_555 1_555
N7_2 N2_4 1_555 1_555
Ag4_2 N5_4 1_555 1_555
C1_4 H1_4 1_555 1_555
C2_4 C1_4 1_555 1_555
H2_4 C2_4 1_555 1_555
N5_4 C1_4 1_555 1_555
N10 O1 1_555 1_555
O2 N10 1_555 1_555
O3 N10 1_555 1_555
O2_2 N10_2 1_555 1_555
O3_2 N10_2 1_555 1_555
N10_3 O1_3 1_555 1_555
O2_3 N10_3 1_555 1_555
O3_3 N10_3 1_555 1_555
O2_4 N10_4 1_555 1_555
O3_4 N10_4 1_555 1_555

#END
