
###############################################################################
#
# This file contains modified crystal structure data generated from the
# MOF subset of the Cambridge Structural Database (CSD) v543 
# hosted by the Cambridge Crystallographic Data Centre (CCDC).
#
# This work is licensed under the Creative Commons
# Attribution-NonCommercial-ShareAlike 4.0 International License.
# To view a copy of this license, visit
# http://creativecommons.org/licenses/by-nc-sa/4.0/
# or send a letter to
# Creative Commons, PO Box 1866, Mountain View, CA 94042, USA.
#
# CIF created using the CSD Python API on 29 September 2022
# The structure has been converted into the P1 space group
# The structure has a 3D framework
# The original CSD entry ZAYWUU01 is in the monoclinic crystal system
# The framework has been calculated to contain at least 10.0% void space
# The void calculation uses a probe of radius 1.32A, grid spacing 0.4
# The framework is charged, counterions have been retained in the structure
#
###############################################################################

data_ZAYWUU01
_chemical_formula_moiety         '(C68 H48 Ag2 N28 O12 2-)n'
_symmetry_cell_setting           triclinic
_symmetry_space_group_name_H-M   'P 1'
_symmetry_Int_Tables_number      1
_space_group_name_Hall           'P 1'
loop_
_symmetry_equiv_pos_site_id
_symmetry_equiv_pos_as_xyz
1 x,y,z
_cell_length_a                   10.451(6)
_cell_length_b                   14.546(8)
_cell_length_c                   15.362(7)
_cell_angle_alpha                90
_cell_angle_beta                 116.00(3)
_cell_angle_gamma                90
_cell_volume                     2098.99
loop_
_atom_site_label
_atom_site_type_symbol
_atom_site_fract_x
_atom_site_fract_y
_atom_site_fract_z
N5 N 0.0757(3) 0.4637(2) 0.3145(2)
H5 H 0.0242 0.4673 0.4226
C10 C 0.0205(4) 0.4518(3) 0.2191(3)
H6 H 0.0816 0.4531 0.1897
Ag3 Ag 0.34094(3) 0.495445(16) 0.404793(18)
Ag1 Ag 0.65906(3) 0.504555(16) 0.595207(18)
N1 N 0.3952(3) 0.34055(18) 0.42313(19)
N2 N 0.6427(3) 0.45288(17) 0.44486(18)
N3 N 0.7361(3) 0.49220(16) 0.41314(19)
N4 N 0.6737(2) 0.35469(16) 0.34779(17)
N6 N 0.6564(3) 0.11890(18) 0.18516(19)
C1 C 0.5137(3) 0.3050(2) 0.4232(2)
C2 C 0.3088(4) 0.2826(2) 0.4400(3)
H1 H 0.2261 0.3061 0.4402
C3 C 0.3361(4) 0.1901(3) 0.4571(3)
H2 H 0.2733 0.1523 0.4686
C4 C 0.4573(4) 0.1546(3) 0.4570(3)
H3 H 0.4775 0.0922 0.4676
C5 C 0.5486(4) 0.2126(2) 0.4408(3)
H4 H 0.6325 0.1903 0.4417
C6 C 0.6068(3) 0.3712(2) 0.4051(2)
C7 C 0.7533(3) 0.4322(2) 0.3556(2)
C8 C 0.8427(3) 0.4434(2) 0.3044(2)
C9 C 0.9870(3) 0.4593(2) 0.3560(2)
C11 C 0.8780(4) 0.4378(3) 0.1618(3)
H7 H 0.8435 0.4317 0.0951
C12 C 0.7875(4) 0.4332(3) 0.2047(2)
H8 H 0.6906 0.4233 0.1676
C13 C 0.6671(3) 0.2739(2) 0.2923(2)
C14 C 0.5380(3) 0.2412(2) 0.2248(2)
H9 H 0.4535 0.2712 0.2134
C15 C 0.5378(3) 0.1624(2) 0.1743(2)
H10 H 0.4507 0.1384 0.1307
C16 C 0.7795(4) 0.1535(2) 0.2501(3)
H11 H 0.8632 0.1247 0.2577
C17 C 0.7904(3) 0.2292(2) 0.3067(3)
H12 H 0.8783 0.2494 0.3531
N7 N 0.6048(3) 0.65945(18) 0.57687(19)
N8 N 0.9243(3) 0.5363(2) 0.6855(2)
N9 N 0.6564(3) 0.38110(18) 0.68516(19)
Ag4 Ag 0.65906(3) 0.995445(16) 0.095207(18)
Ag1_2 Ag 0.34094(3) 0.004555(16) 0.904793(18)
N7_2 N 0.3952(3) 0.15945(18) 0.92313(19)
N8_2 N 0.0757(3) 0.0363(2) 0.8145(2)
N1_2 N 0.6048(3) 0.84055(18) 0.07687(19)
N2_2 N 0.3573(3) 0.95288(17) 0.05514(18)
N3_2 N 0.2639(3) 0.99220(16) 0.08686(19)
N4_2 N 0.3263(2) 0.85469(16) 0.15221(17)
N6_2 N 0.3436(3) 0.61890(18) 0.31484(19)
C1_2 C 0.4863(3) 0.8050(2) 0.0768(2)
C2_2 C 0.6912(4) 0.7826(2) 0.0600(3)
H1_2 H 0.7739 0.8061 0.0598
C3_2 C 0.6639(4) 0.6901(3) 0.0429(3)
H2_2 H 0.7267 0.6523 0.0314
C4_2 C 0.5427(4) 0.6546(3) 0.0430(3)
H3_2 H 0.5225 0.5922 0.0324
C5_2 C 0.4514(4) 0.7126(2) 0.0592(3)
H4_2 H 0.3675 0.6903 0.0583
C6_2 C 0.3932(3) 0.8712(2) 0.0949(2)
C7_2 C 0.2467(3) 0.9322(2) 0.1444(2)
C8_2 C 0.1573(3) 0.9434(2) 0.1956(2)
C9_2 C 0.0130(3) 0.9593(2) 0.1440(2)
C11_2 C 0.1220(4) 0.9378(3) 0.3382(3)
H7_2 H 0.1565 0.9317 0.4049
C12_2 C 0.2125(4) 0.9332(3) 0.2953(2)
H8_2 H 0.3094 0.9233 0.3324
C13_2 C 0.3329(3) 0.7739(2) 0.2077(2)
C14_2 C 0.4620(3) 0.7412(2) 0.2752(2)
H9_2 H 0.5465 0.7712 0.2866
C15_2 C 0.4622(3) 0.6624(2) 0.3257(2)
H10_2 H 0.5493 0.6384 0.3693
C16_2 C 0.2205(4) 0.6535(2) 0.2499(3)
H11_2 H 0.1368 0.6247 0.2423
C17_2 C 0.2096(3) 0.7292(2) 0.1933(3)
H12_2 H 0.1217 0.7494 0.1469
N9_2 N 0.3436(3) 0.88110(18) 0.81484(19)
N5_2 N 0.9243(3) 0.9637(2) 0.1855(2)
H5_2 H 0.9758 0.9673 0.0774
C10_2 C 0.9795(4) 0.9518(3) 0.2809(3)
H6_2 H 0.9184 0.9531 0.3103
N2_3 N 0.3573(3) 0.54712(17) 0.55514(18)
N3_3 N 0.2639(3) 0.50780(16) 0.58686(19)
N4_3 N 0.3263(2) 0.64531(16) 0.65221(17)
C1_3 C 0.4863(3) 0.6950(2) 0.5768(2)
C2_3 C 0.6912(4) 0.7174(2) 0.5600(3)
H1_3 H 0.7739 0.6939 0.5598
C3_3 C 0.6639(4) 0.8099(3) 0.5429(3)
H2_3 H 0.7267 0.8477 0.5314
C4_3 C 0.5427(4) 0.8454(3) 0.5430(3)
H3_3 H 0.5225 0.9078 0.5324
C5_3 C 0.4514(4) 0.7874(2) 0.5592(3)
H4_3 H 0.3675 0.8097 0.5583
C6_3 C 0.3932(3) 0.6288(2) 0.5949(2)
C7_3 C 0.2467(3) 0.5678(2) 0.6444(2)
C8_3 C 0.1573(3) 0.5566(2) 0.6956(2)
C9_3 C 0.0130(3) 0.5407(2) 0.6440(2)
C11_3 C 0.1220(4) 0.5622(3) 0.8382(3)
H7_3 H 0.1565 0.5683 0.9049
C12_3 C 0.2125(4) 0.5668(3) 0.7953(2)
H8_3 H 0.3094 0.5767 0.8324
C13_3 C 0.3329(3) 0.7261(2) 0.7077(2)
C14_3 C 0.4620(3) 0.7588(2) 0.7752(2)
H9_3 H 0.5465 0.7288 0.7866
C15_3 C 0.4622(3) 0.8376(2) 0.8257(2)
H10_3 H 0.5493 0.8616 0.8693
C16_3 C 0.2205(4) 0.8465(2) 0.7499(3)
H11_3 H 0.1368 0.8753 0.7423
C17_3 C 0.2096(3) 0.7708(2) 0.6933(3)
H12_3 H 0.1217 0.7506 0.6469
H5_3 H 0.9758 0.5327 0.5774
C10_3 C 0.9795(4) 0.5482(3) 0.7809(3)
H6_3 H 0.9184 0.5469 0.8103
H5_4 H 0.0242 0.0327 0.9226
C10_4 C 0.0205(4) 0.0482(3) 0.7191(3)
H6_4 H 0.0816 0.0469 0.6897
N2_4 N 0.6427(3) 0.04712(17) 0.94486(18)
N3_4 N 0.7361(3) 0.00780(16) 0.91314(19)
N4_4 N 0.6737(2) 0.14531(16) 0.84779(17)
C1_4 C 0.5137(3) 0.1950(2) 0.9232(2)
C2_4 C 0.3088(4) 0.2174(2) 0.9400(3)
H1_4 H 0.2261 0.1939 0.9402
C3_4 C 0.3361(4) 0.3099(3) 0.9571(3)
H2_4 H 0.2733 0.3477 0.9686
C4_4 C 0.4573(4) 0.3454(3) 0.9570(3)
H3_4 H 0.4775 0.4078 0.9676
C5_4 C 0.5486(4) 0.2874(2) 0.9408(3)
H4_4 H 0.6325 0.3097 0.9417
C6_4 C 0.6068(3) 0.1288(2) 0.9051(2)
C7_4 C 0.7533(3) 0.0678(2) 0.8556(2)
C8_4 C 0.8427(3) 0.0566(2) 0.8044(2)
C9_4 C 0.9870(3) 0.0407(2) 0.8560(2)
C11_4 C 0.8780(4) 0.0622(3) 0.6618(3)
H7_4 H 0.8435 0.0683 0.5951
C12_4 C 0.7875(4) 0.0668(3) 0.7047(2)
H8_4 H 0.6906 0.0767 0.6676
C13_4 C 0.6671(3) 0.2261(2) 0.7923(2)
C14_4 C 0.5380(3) 0.2588(2) 0.7248(2)
H9_4 H 0.4535 0.2288 0.7134
C15_4 C 0.5378(3) 0.3376(2) 0.6743(2)
H10_4 H 0.4507 0.3616 0.6307
C16_4 C 0.7795(4) 0.3465(2) 0.7501(3)
H11_4 H 0.8632 0.3753 0.7577
C17_4 C 0.7904(3) 0.2708(2) 0.8067(3)
H12_4 H 0.8783 0.2506 0.8531
O1 O 0.3102(4) 0.4140(2) 0.1827(3)
O2 O 0.4736(4) 0.4833(3) 0.1685(4)
O3 O 0.2633(4) 0.5233(3) 0.0811(3)
N10 N 0.3473(4) 0.4727(2) 0.1425(2)
O3_2 O 0.7367(4) 0.0233(3) 0.4189(3)
O1_2 O 0.6898(4) 0.9140(2) 0.3173(3)
O2_2 O 0.5264(4) 0.9833(3) 0.3315(4)
N10_2 N 0.6527(4) 0.9727(2) 0.3575(2)
O1_3 O 0.6898(4) 0.5860(2) 0.8173(3)
O2_3 O 0.5264(4) 0.5167(3) 0.8315(4)
O3_3 O 0.7367(4) 0.4767(3) 0.9189(3)
N10_3 N 0.6527(4) 0.5273(2) 0.8575(2)
O1_4 O 0.3102(4) 0.0860(2) 0.6827(3)
O2_4 O 0.4736(4) 0.0167(3) 0.6685(4)
N10_4 N 0.3473(4) 0.0273(2) 0.6425(2)
O3_4 O 0.2633(4) 0.9767(3) 0.5811(3)
loop_
_geom_bond_atom_site_label_1
_geom_bond_atom_site_label_2
_geom_bond_site_symmetry_1
_geom_bond_site_symmetry_2
C10 N5 1_555 1_555
H6 C10 1_555 1_555
Ag3 N5 1_555 1_555
Ag1 N2 1_555 1_555
N1 C1 1_555 1_555
N2 N3 1_555 1_555
N3 C7 1_555 1_555
N4 C6 1_555 1_555
N6 C15 1_555 1_555
C1 C5 1_555 1_555
C2 N1 1_555 1_555
H1 C2 1_555 1_555
C3 C2 1_555 1_555
H2 C3 1_555 1_555
C4 C3 1_555 1_555
H3 C4 1_555 1_555
C5 C4 1_555 1_555
H4 C5 1_555 1_555
C6 N2 1_555 1_555
C7 N4 1_555 1_555
C8 C7 1_555 1_555
C9 C8 1_555 1_555
H7 C11 1_555 1_555
C12 C8 1_555 1_555
H8 C12 1_555 1_555
C13 N4 1_555 1_555
C14 C13 1_555 1_555
H9 C14 1_555 1_555
C15 C14 1_555 1_555
H10 C15 1_555 1_555
C16 N6 1_555 1_555
H11 C16 1_555 1_555
C17 C13 1_555 1_555
H12 C17 1_555 1_555
Ag3 N1 1_555 1_555
N7 Ag1 1_555 1_555
N8 Ag1 1_555 1_555
N9 Ag1 1_555 1_555
C1 C6 1_555 1_555
C11 C12 1_555 1_555
C16 C17 1_555 1_555
N7_2 Ag1_2 1_555 1_555
N8_2 Ag1_2 1_555 1_555
N1_2 C1_2 1_555 1_555
N2_2 N3_2 1_555 1_555
N3_2 C7_2 1_555 1_555
N4_2 C6_2 1_555 1_555
N6_2 C15_2 1_555 1_555
C1_2 C5_2 1_555 1_555
C2_2 N1_2 1_555 1_555
H1_2 C2_2 1_555 1_555
C3_2 C2_2 1_555 1_555
H2_2 C3_2 1_555 1_555
C4_2 C3_2 1_555 1_555
H3_2 C4_2 1_555 1_555
C5_2 C4_2 1_555 1_555
H4_2 C5_2 1_555 1_555
C6_2 N2_2 1_555 1_555
C7_2 N4_2 1_555 1_555
C8_2 C7_2 1_555 1_555
C9_2 C8_2 1_555 1_555
H7_2 C11_2 1_555 1_555
C12_2 C8_2 1_555 1_555
H8_2 C12_2 1_555 1_555
C13_2 N4_2 1_555 1_555
C14_2 C13_2 1_555 1_555
H9_2 C14_2 1_555 1_555
C15_2 C14_2 1_555 1_555
H10_2 C15_2 1_555 1_555
C16_2 N6_2 1_555 1_555
H11_2 C16_2 1_555 1_555
C17_2 C13_2 1_555 1_555
H12_2 C17_2 1_555 1_555
Ag4 N1_2 1_555 1_555
Ag3 N6_2 1_555 1_555
C1_2 C6_2 1_555 1_555
C11_2 C12_2 1_555 1_555
C16_2 C17_2 1_555 1_555
C10_2 N5_2 1_555 1_555
H6_2 C10_2 1_555 1_555
Ag4 N5_2 1_555 1_555
Ag3 N2_3 1_555 1_555
N7 C1_3 1_555 1_555
N2_3 N3_3 1_555 1_555
N3_3 C7_3 1_555 1_555
N4_3 C6_3 1_555 1_555
N9_2 C15_3 1_555 1_555
C1_3 C5_3 1_555 1_555
C2_3 N7 1_555 1_555
H1_3 C2_3 1_555 1_555
C3_3 C2_3 1_555 1_555
H2_3 C3_3 1_555 1_555
C4_3 C3_3 1_555 1_555
H3_3 C4_3 1_555 1_555
C5_3 C4_3 1_555 1_555
H4_3 C5_3 1_555 1_555
C6_3 N2_3 1_555 1_555
C7_3 N4_3 1_555 1_555
C8_3 C7_3 1_555 1_555
C9_3 C8_3 1_555 1_555
H7_3 C11_3 1_555 1_555
C12_3 C8_3 1_555 1_555
H8_3 C12_3 1_555 1_555
C13_3 N4_3 1_555 1_555
C14_3 C13_3 1_555 1_555
H9_3 C14_3 1_555 1_555
C15_3 C14_3 1_555 1_555
H10_3 C15_3 1_555 1_555
C16_3 N9_2 1_555 1_555
H11_3 C16_3 1_555 1_555
C17_3 C13_3 1_555 1_555
H12_3 C17_3 1_555 1_555
C1_3 C6_3 1_555 1_555
C11_3 C12_3 1_555 1_555
C16_3 C17_3 1_555 1_555
C10_3 N8 1_555 1_555
H6_3 C10_3 1_555 1_555
C10_4 N8_2 1_555 1_555
H6_4 C10_4 1_555 1_555
N7_2 C1_4 1_555 1_555
N2_4 N3_4 1_555 1_555
N3_4 C7_4 1_555 1_555
N4_4 C6_4 1_555 1_555
N9 C15_4 1_555 1_555
C1_4 C5_4 1_555 1_555
C2_4 N7_2 1_555 1_555
H1_4 C2_4 1_555 1_555
C3_4 C2_4 1_555 1_555
H2_4 C3_4 1_555 1_555
C4_4 C3_4 1_555 1_555
H3_4 C4_4 1_555 1_555
C5_4 C4_4 1_555 1_555
H4_4 C5_4 1_555 1_555
C6_4 N2_4 1_555 1_555
C7_4 N4_4 1_555 1_555
C8_4 C7_4 1_555 1_555
C9_4 C8_4 1_555 1_555
H7_4 C11_4 1_555 1_555
C12_4 C8_4 1_555 1_555
H8_4 C12_4 1_555 1_555
C13_4 N4_4 1_555 1_555
C14_4 C13_4 1_555 1_555
H9_4 C14_4 1_555 1_555
C15_4 C14_4 1_555 1_555
H10_4 C15_4 1_555 1_555
C16_4 N9 1_555 1_555
H11_4 C16_4 1_555 1_555
C17_4 C13_4 1_555 1_555
H12_4 C17_4 1_555 1_555
C1_4 C6_4 1_555 1_555
C11_4 C12_4 1_555 1_555
C16_4 C17_4 1_555 1_555
O1 N10 1_555 1_555
O2 N10 1_555 1_555
O3 N10 1_555 1_555
O1_2 N10_2 1_555 1_555
O2_2 N10_2 1_555 1_555
O1_3 N10_3 1_555 1_555
O2_3 N10_3 1_555 1_555
O3_3 N10_3 1_555 1_555
O1_4 N10_4 1_555 1_555
O2_4 N10_4 1_555 1_555

#END
