
###############################################################################
#
# This file contains modified crystal structure data generated from the
# MOF subset of the Cambridge Structural Database (CSD) v543 
# hosted by the Cambridge Crystallographic Data Centre (CCDC).
#
# This work is licensed under the Creative Commons
# Attribution-NonCommercial-ShareAlike 4.0 International License.
# To view a copy of this license, visit
# http://creativecommons.org/licenses/by-nc-sa/4.0/
# or send a letter to
# Creative Commons, PO Box 1866, Mountain View, CA 94042, USA.
#
# CIF created using the CSD Python API on 29 September 2022
# The structure has been converted into the P1 space group
# The structure has a 3D framework
# The original CSD entry ZAYXEF is in the monoclinic crystal system
# The framework has been calculated to contain at least 10.0% void space
# The void calculation uses a probe of radius 1.32A, grid spacing 0.4
# The framework is charged, counterions have been retained in the structure
# H atom positions have been added when not included in the experimental data
#
###############################################################################

data_ZAYXEF
_chemical_formula_moiety         '(C68 H52 Ag4 Mn4 N24 O16)n'
_symmetry_cell_setting           triclinic
_symmetry_space_group_name_H-M   'P 1'
_symmetry_Int_Tables_number      1
_space_group_name_Hall           'P 1'
loop_
_symmetry_equiv_pos_site_id
_symmetry_equiv_pos_as_xyz
1 x,y,z
_cell_length_a                   10.2824(9)
_cell_length_b                   14.8893(10)
_cell_length_c                   14.3004(13)
_cell_angle_alpha                90
_cell_angle_beta                 103.428(9)
_cell_angle_gamma                90
_cell_volume                     2129.51
loop_
_atom_site_label
_atom_site_type_symbol
_atom_site_fract_x
_atom_site_fract_y
_atom_site_fract_z
Ag1 Ag 0.55634(5) 0.51317(4) 0.40285(4)
N1 N 0.2928(5) 0.4592(4) 0.4433(4)
N2 N 0.1687(6) 0.4986(4) 0.4130(4)
N3 N 0.1675(5) 0.3716(4) 0.3363(3)
N4 N 0.0213(5) 0.1469(4) 0.1671(4)
N5 N 0.5240(5) 0.3603(4) 0.4114(4)
C1 C 0.6305(7) 0.3065(5) 0.4249(5)
H1 H 0.7136 0.3317 0.4261
C2 C 0.6220(8) 0.2143(6) 0.4372(6)
H2 H 0.6982 0.1788 0.4453
C3 C 0.5007(8) 0.1759(5) 0.4373(6)
H3 H 0.4936 0.1144 0.4468
C4 C 0.3895(7) 0.2306(5) 0.4229(5)
H4 H 0.3056 0.2068 0.4223
C5 C 0.4052(6) 0.3212(4) 0.4095(4)
C6 C 0.2913(6) 0.3842(4) 0.3955(4)
C7 C 0.1395(6) 0.1851(5) 0.1633(5)
H5 H 0.1896 0.1591 0.1241
C8 C 0.1893(6) 0.2610(5) 0.2150(5)
H6 H 0.2683 0.2875 0.2079
C9 C 0.1194(6) 0.2964(4) 0.2770(4)
C10 C 0.0013(7) 0.2562(5) 0.2839(6)
C12 C 0.0964(6) 0.4467(4) 0.3501(4)
Ag4 Ag 0.44366(5) 0.48683(4) 0.59715(4)
N7 N 0.7072(5) 0.5408(4) 0.5567(4)
N8 N 0.4787(5) 0.6469(4) 0.3329(4)
N9 N 0.7332(6) 0.4964(4) 0.3067(5)
H7 H 0.9529 0.2777 0.3266
C11 C 0.9572(7) 0.1838(5) 0.2263(6)
H8 H 0.8753 0.1590 0.2294
C13 C 0.8623(7) 0.4828(5) 0.3482(6)
H9 H 0.8889 0.4865 0.4148
C14 C 0.9581(6) 0.4637(4) 0.2981(5)
C15 C 0.9197(7) 0.4596(6) 0.1982(5)
H10 H 0.9821 0.4482 0.1619
C16 C 0.7870(8) 0.4729(6) 0.1545(6)
H11 H 0.7580 0.4699 0.0880
C17 C 0.6958(8) 0.4912(5) 0.2117(6)
H12 H 0.6062 0.4998 0.1819
Ag3 Ag 0.94366(5) 0.01317(4) 0.09715(4)
N1_2 N 0.2072(5) 0.9592(4) 0.0567(4)
N2_2 N 0.3313(6) 0.9986(4) 0.0870(4)
N3_2 N 0.3325(5) 0.8716(4) 0.1637(3)
N6 N 0.7668(6) 0.9964(4) 0.1933(5)
H3_2 H 0.0064 0.6144 0.0532
C4_2 C 0.1105(7) 0.7306(5) 0.0771(5)
H4_2 H 0.1944 0.7068 0.0777
C5_2 C 0.0948(6) 0.8212(4) 0.0905(4)
C6_2 C 0.2087(6) 0.8842(4) 0.1045(4)
C7_2 C 0.3605(6) 0.6851(5) 0.3367(5)
H5_2 H 0.3104 0.6591 0.3759
C8_2 C 0.3107(6) 0.7610(5) 0.2850(5)
H6_2 H 0.2317 0.7875 0.2921
C9_2 C 0.3806(6) 0.7964(4) 0.2230(4)
C10_2 C 0.4987(7) 0.7562(5) 0.2161(6)
H7_2 H 0.5471 0.7777 0.1734
C11_2 C 0.5428(7) 0.6838(5) 0.2737(6)
H8_2 H 0.6247 0.6590 0.2706
C12_2 C 0.4036(6) 0.9467(4) 0.1499(4)
C13_2 C 0.6377(7) 0.9828(5) 0.1518(6)
H9_2 H 0.6111 0.9865 0.0852
C14_2 C 0.5419(6) 0.9637(4) 0.2019(5)
C15_2 C 0.5803(7) 0.9596(6) 0.3018(5)
H10_2 H 0.5179 0.9482 0.3381
C16_2 C 0.7130(8) 0.9729(6) 0.3455(6)
H11_2 H 0.7420 0.9699 0.4120
C17_2 C 0.8042(8) 0.9912(5) 0.2883(6)
H12_2 H 0.8938 0.9998 0.3181
Ag4_2 Ag 0.05634(5) 0.98683(4) 0.90285(4)
N7_2 N 0.7928(5) 0.0408(4) 0.9433(4)
N5_2 N 0.9760(5) 0.8603(4) 0.0886(4)
C1_2 C 0.8695(7) 0.8065(5) 0.0751(5)
H1_2 H 0.7864 0.8317 0.0739
C2_2 C 0.8780(8) 0.7143(6) 0.0628(6)
H2_2 H 0.8018 0.6788 0.0547
C3_2 C 0.9993(8) 0.6759(5) 0.0627(6)
N6_2 N 0.2668(6) 0.5036(4) 0.6933(5)
H7_3 H 0.0471 0.7223 0.6734
C11_3 C 0.0428(7) 0.8162(5) 0.7737(6)
H8_3 H 0.1247 0.8410 0.7706
C13_3 C 0.1377(7) 0.5172(5) 0.6518(6)
H9_3 H 0.1111 0.5135 0.5852
C14_3 C 0.0419(6) 0.5363(4) 0.7019(5)
C15_3 C 0.0803(7) 0.5404(6) 0.8018(5)
H10_3 H 0.0179 0.5518 0.8381
C16_3 C 0.2130(8) 0.5271(6) 0.8455(6)
H11_3 H 0.2420 0.5301 0.9120
C17_3 C 0.3042(8) 0.5088(5) 0.7883(6)
H12_3 H 0.3938 0.5002 0.8181
N2_3 N 0.8313(6) 0.5014(4) 0.5870(4)
N3_3 N 0.8325(5) 0.6284(4) 0.6637(3)
N4_2 N 0.9787(5) 0.8531(4) 0.8329(4)
N5_3 N 0.4760(5) 0.6397(4) 0.5886(4)
C1_3 C 0.3695(7) 0.6935(5) 0.5751(5)
H1_3 H 0.2864 0.6683 0.5739
C2_3 C 0.3780(8) 0.7857(6) 0.5628(6)
H2_3 H 0.3018 0.8212 0.5547
C3_3 C 0.4993(8) 0.8241(5) 0.5627(6)
H3_3 H 0.5064 0.8856 0.5532
C4_3 C 0.6105(7) 0.7694(5) 0.5771(5)
H4_3 H 0.6944 0.7932 0.5777
C5_3 C 0.5948(6) 0.6788(4) 0.5905(4)
C6_3 C 0.7087(6) 0.6158(4) 0.6045(4)
C7_3 C 0.8605(6) 0.8149(5) 0.8367(5)
H5_3 H 0.8104 0.8409 0.8759
C8_3 C 0.8107(6) 0.7390(5) 0.7850(5)
H6_3 H 0.7317 0.7125 0.7921
C9_3 C 0.8806(6) 0.7036(4) 0.7230(4)
C10_3 C 0.9987(7) 0.7438(5) 0.7161(6)
C12_3 C 0.9036(6) 0.5533(4) 0.6499(4)
N8_2 N 0.5213(5) 0.3531(4) 0.6671(4)
N5_4 N 0.0240(5) 0.1397(4) 0.9114(4)
C1_4 C 0.1305(7) 0.1935(5) 0.9249(5)
H1_4 H 0.2136 0.1683 0.9261
C2_4 C 0.1220(8) 0.2857(6) 0.9372(6)
H2_4 H 0.1982 0.3212 0.9453
C3_4 C 0.0007(8) 0.3241(5) 0.9373(6)
N9_2 N 0.2332(6) 0.0036(4) 0.8067(5)
N2_4 N 0.6687(6) 0.0014(4) 0.9130(4)
N3_4 N 0.6675(5) 0.1284(4) 0.8363(3)
H3_4 H 0.9936 0.3856 0.9468
C4_4 C 0.8895(7) 0.2694(5) 0.9229(5)
H4_4 H 0.8056 0.2932 0.9223
C5_4 C 0.9052(6) 0.1788(4) 0.9095(4)
C6_4 C 0.7913(6) 0.1158(4) 0.8955(4)
C7_4 C 0.6395(6) 0.3149(5) 0.6633(5)
H5_4 H 0.6896 0.3409 0.6241
C8_4 C 0.6893(6) 0.2390(5) 0.7150(5)
H6_4 H 0.7683 0.2125 0.7079
C9_4 C 0.6194(6) 0.2036(4) 0.7770(4)
C10_4 C 0.5013(7) 0.2438(5) 0.7839(6)
H7_4 H 0.4529 0.2223 0.8266
C11_4 C 0.4572(7) 0.3162(5) 0.7263(6)
H8_4 H 0.3753 0.3410 0.7294
C12_4 C 0.5964(6) 0.0533(4) 0.8501(4)
C13_4 C 0.3623(7) 0.0172(5) 0.8482(6)
H9_4 H 0.3889 0.0135 0.9148
C14_4 C 0.4581(6) 0.0363(4) 0.7981(5)
C15_4 C 0.4197(7) 0.0404(6) 0.6982(5)
H10_4 H 0.4821 0.0518 0.6619
C16_4 C 0.2870(8) 0.0271(6) 0.6545(6)
H11_4 H 0.2580 0.0301 0.5880
C17_4 C 0.1958(8) 0.0088(5) 0.7117(6)
H12_4 H 0.1062 0.0002 0.6819
Mn1 Mn 0.29181(18) 0.49789(12) 0.13719(15)
O1 O 0.2120(9) 0.5544(7) 0.2103(7)
O2 O 0.3890(8) 0.4386(6) 0.2121(6)
O3 O 0.3586(10) 0.5765(6) 0.0935(8)
O4 O 0.1691(8) 0.4557(7) 0.0711(7)
H13 H 0.107782 0.503834 0.0391574
O1_2 O 0.2880(9) 0.0544(7) 0.2897(7)
O3_2 O 0.1414(10) 0.0765(6) 0.4065(8)
H13_2 H 0.392218 0.00383401 0.460843
Mn1_2 Mn 0.20819(18) 0.99789(12) 0.36281(15)
O2_2 O 0.1110(8) 0.9386(6) 0.2879(6)
O4_2 O 0.3309(8) 0.9557(7) 0.4289(7)
Mn1_3 Mn 0.70819(18) 0.50211(12) 0.86281(15)
O1_3 O 0.7880(9) 0.4456(7) 0.7897(7)
O2_3 O 0.6110(8) 0.5614(6) 0.7879(6)
O3_3 O 0.6414(10) 0.4235(6) 0.9065(8)
O4_3 O 0.8309(8) 0.5443(7) 0.9289(7)
H13_3 H 0.892218 0.496166 0.960843
Mn1_4 Mn 0.79181(18) 0.00211(12) 0.63719(15)
O2_4 O 0.8890(8) 0.0614(6) 0.7121(6)
O4_4 O 0.6691(8) 0.0443(7) 0.5711(7)
O1_4 O 0.7120(9) 0.9456(7) 0.7103(7)
O3_4 O 0.8586(10) 0.9235(6) 0.5935(8)
H13_4 H 0.607782 0.996166 0.539157
loop_
_geom_bond_atom_site_label_1
_geom_bond_atom_site_label_2
_geom_bond_site_symmetry_1
_geom_bond_site_symmetry_2
Ag1 N5 1_555 1_555
N1 N2 1_555 1_555
N2 C12 1_555 1_555
N3 C6 1_555 1_555
N4 C7 1_555 1_555
N5 C1 1_555 1_555
C1 H1 1_555 1_555
C2 C1 1_555 1_555
H2 C2 1_555 1_555
C3 C2 1_555 1_555
H3 C3 1_555 1_555
C4 C3 1_555 1_555
H4 C4 1_555 1_555
C5 N5 1_555 1_555
C6 N1 1_555 1_555
C7 H5 1_555 1_555
C8 C7 1_555 1_555
H6 C8 1_555 1_555
C9 N3 1_555 1_555
C10 C9 1_555 1_555
C12 N3 1_555 1_555
Ag4 N1 1_555 1_555
N7 Ag1 1_555 1_555
N8 Ag1 1_555 1_555
N9 Ag1 1_555 1_555
C4 C5 1_555 1_555
C5 C6 1_555 1_555
C8 C9 1_555 1_555
N9 C13 1_555 1_555
H8 C11 1_555 1_555
C13 H9 1_555 1_555
C15 C14 1_555 1_555
H10 C15 1_555 1_555
C16 C15 1_555 1_555
H11 C16 1_555 1_555
C17 N9 1_555 1_555
H12 C17 1_555 1_555
C13 C14 1_555 1_555
C16 C17 1_555 1_555
N1_2 N2_2 1_555 1_555
N2_2 C12_2 1_555 1_555
N3_2 C6_2 1_555 1_555
N8 C7_2 1_555 1_555
N6 C13_2 1_555 1_555
H4_2 C4_2 1_555 1_555
C6_2 N1_2 1_555 1_555
C7_2 H5_2 1_555 1_555
C8_2 C7_2 1_555 1_555
H6_2 C8_2 1_555 1_555
C9_2 N3_2 1_555 1_555
C10_2 C9_2 1_555 1_555
H7_2 C10_2 1_555 1_555
C11_2 N8 1_555 1_555
H8_2 C11_2 1_555 1_555
C12_2 N3_2 1_555 1_555
C13_2 H9_2 1_555 1_555
C14_2 C12_2 1_555 1_555
C15_2 C14_2 1_555 1_555
H10_2 C15_2 1_555 1_555
C16_2 C15_2 1_555 1_555
H11_2 C16_2 1_555 1_555
C17_2 N6 1_555 1_555
H12_2 C17_2 1_555 1_555
C4_2 C5_2 1_555 1_555
C5_2 C6_2 1_555 1_555
C8_2 C9_2 1_555 1_555
C10_2 C11_2 1_555 1_555
C13_2 C14_2 1_555 1_555
C16_2 C17_2 1_555 1_555
N5_2 C1_2 1_555 1_555
C1_2 H1_2 1_555 1_555
C2_2 C1_2 1_555 1_555
H2_2 C2_2 1_555 1_555
C3_2 C2_2 1_555 1_555
N6_2 C13_3 1_555 1_555
H8_3 C11_3 1_555 1_555
C13_3 H9_3 1_555 1_555
C15_3 C14_3 1_555 1_555
H10_3 C15_3 1_555 1_555
C16_3 C15_3 1_555 1_555
H11_3 C16_3 1_555 1_555
C17_3 N6_2 1_555 1_555
H12_3 C17_3 1_555 1_555
Ag4 N6_2 1_555 1_555
C13_3 C14_3 1_555 1_555
C16_3 C17_3 1_555 1_555
Ag4 N5_3 1_555 1_555
N7 N2_3 1_555 1_555
N2_3 C12_3 1_555 1_555
N3_3 C6_3 1_555 1_555
N4_2 C7_3 1_555 1_555
N5_3 C1_3 1_555 1_555
C1_3 H1_3 1_555 1_555
C2_3 C1_3 1_555 1_555
H2_3 C2_3 1_555 1_555
C3_3 C2_3 1_555 1_555
H3_3 C3_3 1_555 1_555
C4_3 C3_3 1_555 1_555
H4_3 C4_3 1_555 1_555
C5_3 N5_3 1_555 1_555
C6_3 N7 1_555 1_555
C7_3 H5_3 1_555 1_555
C8_3 C7_3 1_555 1_555
H6_3 C8_3 1_555 1_555
C9_3 N3_3 1_555 1_555
C10_3 C9_3 1_555 1_555
C12_3 N3_3 1_555 1_555
N8_2 Ag4 1_555 1_555
C4_3 C5_3 1_555 1_555
C5_3 C6_3 1_555 1_555
C8_3 C9_3 1_555 1_555
N5_4 C1_4 1_555 1_555
C1_4 H1_4 1_555 1_555
C2_4 C1_4 1_555 1_555
H2_4 C2_4 1_555 1_555
C3_4 C2_4 1_555 1_555
N7_2 N2_4 1_555 1_555
N2_4 C12_4 1_555 1_555
N3_4 C6_4 1_555 1_555
N8_2 C7_4 1_555 1_555
N9_2 C13_4 1_555 1_555
H4_4 C4_4 1_555 1_555
C6_4 N7_2 1_555 1_555
C7_4 H5_4 1_555 1_555
C8_4 C7_4 1_555 1_555
H6_4 C8_4 1_555 1_555
C9_4 N3_4 1_555 1_555
C10_4 C9_4 1_555 1_555
H7_4 C10_4 1_555 1_555
C11_4 N8_2 1_555 1_555
H8_4 C11_4 1_555 1_555
C12_4 N3_4 1_555 1_555
C13_4 H9_4 1_555 1_555
C14_4 C12_4 1_555 1_555
C15_4 C14_4 1_555 1_555
H10_4 C15_4 1_555 1_555
C16_4 C15_4 1_555 1_555
H11_4 C16_4 1_555 1_555
C17_4 N9_2 1_555 1_555
H12_4 C17_4 1_555 1_555
C4_4 C5_4 1_555 1_555
C5_4 C6_4 1_555 1_555
C8_4 C9_4 1_555 1_555
C10_4 C11_4 1_555 1_555
C13_4 C14_4 1_555 1_555
C16_4 C17_4 1_555 1_555
Mn1 O1 1_555 1_555
O2 Mn1 1_555 1_555
O3 Mn1 1_555 1_555
O4 Mn1 1_555 1_555
O4 H13 1_555 1_555
O2_2 Mn1_2 1_555 1_555
O4_2 Mn1_2 1_555 1_555
Mn1_3 O1_3 1_555 1_555
O2_3 Mn1_3 1_555 1_555
O3_3 Mn1_3 1_555 1_555
O4_3 Mn1_3 1_555 1_555
O4_3 H13_3 1_555 1_555
O2_4 Mn1_4 1_555 1_555
O4_4 Mn1_4 1_555 1_555

#END
