
###############################################################################
#
# This file contains modified crystal structure data generated from the
# MOF subset of the Cambridge Structural Database (CSD) v543 
# hosted by the Cambridge Crystallographic Data Centre (CCDC).
#
# This work is licensed under the Creative Commons
# Attribution-NonCommercial-ShareAlike 4.0 International License.
# To view a copy of this license, visit
# http://creativecommons.org/licenses/by-nc-sa/4.0/
# or send a letter to
# Creative Commons, PO Box 1866, Mountain View, CA 94042, USA.
#
# CIF created using the CSD Python API on 29 September 2022
# The structure has been converted into the P1 space group
# The structure has a 3D framework
# The original CSD entry ZAZLOF is in the monoclinic crystal system
# The framework has been calculated to contain at least 10.0% void space
# The void calculation uses a probe of radius 1.32A, grid spacing 0.4
#
###############################################################################

data_ZAZLOF
_chemical_formula_moiety         '(C72 H48 Co4 N16 O16 S4)n'
_symmetry_cell_setting           triclinic
_symmetry_space_group_name_H-M   'P 1'
_symmetry_Int_Tables_number      1
_space_group_name_Hall           'P 1'
loop_
_symmetry_equiv_pos_site_id
_symmetry_equiv_pos_as_xyz
1 x,y,z
_cell_length_a                   11.0618(8)
_cell_length_b                   16.0358(8)
_cell_length_c                   12.1420(9)
_cell_angle_alpha                90
_cell_angle_beta                 107.326(8)
_cell_angle_gamma                90
_cell_volume                     2056.08
loop_
_atom_site_label
_atom_site_type_symbol
_atom_site_fract_x
_atom_site_fract_y
_atom_site_fract_z
C1 C 0.2661(3) 0.16055(18) 0.6887(3)
C2 C 0.2200(3) 0.23997(17) 0.7285(2)
C3 C 0.2468(3) 0.31948(17) 0.7062(3)
H1 H 0.2983(3) 0.33307(17) 0.6607(3)
C4 C 0.1892(3) 0.37941(17) 0.7585(3)
H2 H 0.1988(3) 0.43660(17) 0.7515(3)
C5 C 0.1179(3) 0.34475(16) 0.8206(2)
C6 C 0.0450(3) 0.38945(17) 0.8860(2)
C7 C 0.1572(3) 0.0010(2) 0.4550(3)
C9 C 0.1983(3) 0.07749(18) 0.3275(3)
H5 H 0.2388(3) 0.11342(18) 0.2898(3)
C10 C 0.0001(3) 0.06079(17) 0.1656(3)
C15 C 0.0102(3) 0.13518(17) 0.1128(3)
H9 H 0.0706(3) 0.17403(17) 0.1508(3)
Co1 Co 0.41886(4) 0.08500(2) 0.55432(3)
N1 N 0.2465(2) 0.05255(14) 0.4345(2)
N2 N 0.0817(2) 0.04417(14) 0.2789(2)
O1 O 0.3462(2) 0.17165(12) 0.63346(19)
O2 O 0.2263(2) 0.09365(12) 0.7127(2)
O4 O 0.0541(2) 0.46688(11) 0.88996(19)
S1 S 0.12247(7) 0.23740(4) 0.81533(7)
Co3 Co 0.08114(4) 0.58500(2) 0.94568(3)
N5 N 0.6015(2) 0.10819(14) 0.6734(2)
O5 O 0.47936(19) 0.15197(12) 0.43536(17)
H3 H 0.1655(3) 0.9739(2) 0.5246(3)
C8 C 0.0559(3) 0.99475(19) 0.3614(3)
O6 O 0.4459(2) 0.96688(11) 0.61004(19)
Co4 Co 0.91886(4) 0.41500(2) 0.05432(3)
C13 C 0.8420(3) 0.09499(17) 0.9475(2)
H8 H 0.9388(3) 0.20314(17) 0.9688(3)
C16 C 0.6545(3) 0.07293(18) 0.7734(3)
H10 H 0.6230(3) 0.02554(18) 0.7996(3)
C17 C 0.6780(3) 0.17482(18) 0.6682(3)
H11 H 0.6643(3) 0.21146(18) 0.6063(3)
C18 C 0.7756(3) 0.17917(19) 0.7659(3)
H12 H 0.8403(3) 0.21856(19) 0.7836(3)
N4 N 0.7609(2) 0.11372(13) 0.8345(2)
C1_2 C 0.2339(3) 0.66055(18) 0.8113(3)
C2_2 C 0.2800(3) 0.73997(17) 0.7715(2)
C3_2 C 0.2532(3) 0.81948(17) 0.7938(3)
H1_2 H 0.2017(3) 0.83307(17) 0.8393(3)
C4_2 C 0.3108(3) 0.87941(17) 0.7415(3)
H2_2 H 0.3012(3) 0.93660(17) 0.7485(3)
C5_2 C 0.3821(3) 0.84475(16) 0.6794(2)
C6_2 C 0.4550(3) 0.88945(17) 0.6140(2)
H3_2 H 0.3345(3) 0.4739(2) 0.9754(3)
O1_2 O 0.1538(2) 0.67165(12) 0.86654(19)
O2_2 O 0.2737(2) 0.59365(12) 0.7873(2)
O3 O 0.52064(19) 0.84803(12) 0.56464(17)
S1_2 S 0.37753(7) 0.73740(4) 0.68467(7)
Co4_2 Co 0.58114(4) 0.91500(2) 0.44568(3)
C13_2 C 0.1580(3) 0.90501(17) 0.0525(2)
H8_2 H 0.0612(3) 0.79686(17) 0.0312(3)
C16_2 C 0.3455(3) 0.92707(18) 0.2266(3)
H10_2 H 0.3770(3) 0.97446(18) 0.2004(3)
C17_2 C 0.3220(3) 0.82518(18) 0.3318(3)
H11_2 H 0.3357(3) 0.78854(18) 0.3937(3)
C18_2 C 0.2244(3) 0.82083(19) 0.2341(3)
H12_2 H 0.1597(3) 0.78144(19) 0.2164(3)
N3 N 0.3985(2) 0.89181(14) 0.3266(2)
N4_2 N 0.2391(2) 0.88628(13) 0.1655(2)
H3_3 H 0.8345(3) 0.0261(2) 0.4754(3)
C8_2 C 0.9441(3) 0.00525(19) 0.6386(3)
O6_2 O 0.5541(2) 0.03312(11) 0.38996(19)
C1_3 C 0.7339(3) 0.83945(18) 0.3113(3)
C2_3 C 0.7800(3) 0.76003(17) 0.2715(2)
C3_3 C 0.7532(3) 0.68052(17) 0.2938(3)
H1_3 H 0.7017(3) 0.66693(17) 0.3393(3)
C4_3 C 0.8108(3) 0.62059(17) 0.2415(3)
H2_3 H 0.8012(3) 0.56340(17) 0.2485(3)
C5_3 C 0.8821(3) 0.65525(16) 0.1794(2)
C6_3 C 0.9550(3) 0.61055(17) 0.1140(2)
C7_2 C 0.8428(3) 0.9990(2) 0.5450(3)
C9_2 C 0.8017(3) 0.92251(18) 0.6725(3)
H5_2 H 0.7612(3) 0.88658(18) 0.7102(3)
C10_2 C 0.9999(3) 0.93921(17) 0.8344(3)
C15_2 C 0.9898(3) 0.86482(17) 0.8872(3)
H9_2 H 0.9294(3) 0.82597(17) 0.8492(3)
N1_2 N 0.7535(2) 0.94745(14) 0.5655(2)
N2_2 N 0.9183(2) 0.95583(14) 0.7211(2)
O1_3 O 0.6538(2) 0.82835(12) 0.36654(19)
O2_3 O 0.7737(2) 0.90635(12) 0.2873(2)
O4_2 O 0.9459(2) 0.53312(11) 0.11004(19)
S1_3 S 0.87753(7) 0.76260(4) 0.18467(7)
C1_4 C 0.7661(3) 0.33945(18) 0.1887(3)
C2_4 C 0.7200(3) 0.26003(17) 0.2285(2)
C3_4 C 0.7468(3) 0.18052(17) 0.2062(3)
H1_4 H 0.7983(3) 0.16693(17) 0.1607(3)
C4_4 C 0.6892(3) 0.12059(17) 0.2585(3)
H2_4 H 0.6988(3) 0.06340(17) 0.2515(3)
C5_4 C 0.6179(3) 0.15525(16) 0.3206(2)
C6_4 C 0.5450(3) 0.11055(17) 0.3860(2)
H3_4 H 0.6655(3) 0.5261(2) 0.0246(3)
O1_4 O 0.8462(2) 0.32835(12) 0.13346(19)
O2_4 O 0.7263(2) 0.40635(12) 0.2127(2)
S1_4 S 0.62247(7) 0.26260(4) 0.31533(7)
C11 C 0.9095(3) 0.00321(18) 0.1095(3)
C12 C 0.8310(3) 0.01997(17) 0.0003(3)
C14 C 0.9315(3) 0.15266(17) 0.0040(3)
O3_2 O 0.97936(19) 0.34803(12) 0.93536(17)
N5_2 N 0.1015(2) 0.39181(14) 0.1734(2)
C7_3 C 0.6572(3) 0.4990(2) 0.9550(3)
C8_3 C 0.5559(3) 0.50525(19) 0.8614(3)
H4 H 0.4831(3) 0.53659(19) 0.8540(3)
C9_3 C 0.6983(3) 0.42251(18) 0.8275(3)
H5_3 H 0.7388(3) 0.38658(18) 0.7898(3)
C10_3 C 0.5001(3) 0.43921(17) 0.6656(3)
C11_2 C 0.4095(3) 0.49679(18) 0.6095(3)
H6 H 0.4016(3) 0.54682(18) 0.6455(3)
C12_2 C 0.3310(3) 0.48003(17) 0.5003(3)
H7 H 0.2707(3) 0.51896(17) 0.4622(3)
C13_3 C 0.3420(3) 0.40501(17) 0.4475(2)
C14_2 C 0.4315(3) 0.34734(17) 0.5040(3)
H8_3 H 0.4388(3) 0.29686(17) 0.4688(3)
C15_3 C 0.5102(3) 0.36482(17) 0.6128(3)
H9_3 H 0.5706(3) 0.32597(17) 0.6508(3)
C16_3 C 0.1545(3) 0.42707(18) 0.2734(3)
H10_3 H 0.1230(3) 0.47446(18) 0.2996(3)
C17_3 C 0.1780(3) 0.32518(18) 0.1682(3)
H11_3 H 0.1643(3) 0.28854(18) 0.1063(3)
C18_3 C 0.2756(3) 0.32083(19) 0.2659(3)
H12_3 H 0.3403(3) 0.28144(19) 0.2836(3)
N1_3 N 0.7465(2) 0.44745(14) 0.9345(2)
N2_3 N 0.5817(2) 0.45583(14) 0.7789(2)
N4_3 N 0.2609(2) 0.38628(13) 0.3345(2)
H4_2 H 0.9831(3) 0.96341(19) 0.3540(3)
H6_2 H 0.9016(3) 0.95318(18) 0.1455(3)
H7_2 H 0.7707(3) 0.98104(17) 0.9622(3)
C7_4 C 0.3428(3) 0.5010(2) 0.0450(3)
C8_4 C 0.4441(3) 0.49475(19) 0.1386(3)
H4_3 H 0.5169(3) 0.46341(19) 0.1460(3)
C9_4 C 0.3017(3) 0.57749(18) 0.1725(3)
H5_4 H 0.2612(3) 0.61342(18) 0.2102(3)
C10_4 C 0.4999(3) 0.56079(17) 0.3344(3)
C11_3 C 0.5905(3) 0.50321(18) 0.3905(3)
H6_3 H 0.5984(3) 0.45318(18) 0.3545(3)
C12_3 C 0.6690(3) 0.51997(17) 0.4997(3)
H7_3 H 0.7293(3) 0.48104(17) 0.5378(3)
C13_4 C 0.6580(3) 0.59499(17) 0.5525(2)
C14_3 C 0.5685(3) 0.65266(17) 0.4960(3)
H8_4 H 0.5612(3) 0.70314(17) 0.5312(3)
C15_4 C 0.4898(3) 0.63518(17) 0.3872(3)
H9_4 H 0.4294(3) 0.67403(17) 0.3492(3)
C16_4 C 0.8455(3) 0.57293(18) 0.7266(3)
H10_4 H 0.8770(3) 0.52554(18) 0.7004(3)
C17_4 C 0.8220(3) 0.67482(18) 0.8318(3)
H11_4 H 0.8357(3) 0.71146(18) 0.8937(3)
C18_4 C 0.7244(3) 0.67917(19) 0.7341(3)
H12_4 H 0.6597(3) 0.71856(19) 0.7164(3)
N1_4 N 0.2535(2) 0.55255(14) 0.0655(2)
N2_4 N 0.4183(2) 0.54417(14) 0.2211(2)
N3_2 N 0.8985(2) 0.60819(14) 0.8266(2)
N4_4 N 0.7391(2) 0.61372(13) 0.6655(2)
O5_2 O 0.02064(19) 0.65197(12) 0.06464(17)
C11_4 C 0.0905(3) 0.99679(18) 0.8905(3)
C12_4 C 0.1690(3) 0.98003(17) 0.9997(3)
C14_4 C 0.0685(3) 0.84734(17) 0.9960(3)
H7_4 H 0.2293(3) 0.01896(17) 0.0378(3)
H4_4 H 0.0169(3) 0.03659(19) 0.6460(3)
H6_4 H 0.0984(3) 0.04682(18) 0.8545(3)
loop_
_geom_bond_atom_site_label_1
_geom_bond_atom_site_label_2
_geom_bond_site_symmetry_1
_geom_bond_site_symmetry_2
C1 C2 1_555 1_555
C2 C3 1_555 1_555
C3 H1 1_555 1_555
C4 C3 1_555 1_555
H2 C4 1_555 1_555
C5 C4 1_555 1_555
C6 C5 1_555 1_555
C9 H5 1_555 1_555
C15 C10 1_555 1_555
H9 C15 1_555 1_555
Co1 N1 1_555 1_555
N1 C7 1_555 1_555
O1 C1 1_555 1_555
O2 C1 1_555 1_555
O4 C6 1_555 1_555
S1 C2 1_555 1_555
Co3 O4 1_555 1_555
N5 Co1 1_555 1_555
O5 Co1 1_555 1_555
C5 S1 1_555 1_555
C9 N1 1_555 1_555
C9 N2 1_555 1_555
C10 N2 1_555 1_555
Co1 O1 1_555 1_555
C16 H10 1_555 1_555
C17 H11 1_555 1_555
C18 C17 1_555 1_555
H12 C18 1_555 1_555
N5 C16 1_555 1_555
N4 C13 1_555 1_555
C16 N4 1_555 1_555
C17 N5 1_555 1_555
C18 N4 1_555 1_555
C1_2 C2_2 1_555 1_555
C2_2 C3_2 1_555 1_555
C3_2 H1_2 1_555 1_555
C4_2 C3_2 1_555 1_555
H2_2 C4_2 1_555 1_555
C5_2 C4_2 1_555 1_555
C6_2 C5_2 1_555 1_555
O1_2 C1_2 1_555 1_555
O2_2 C1_2 1_555 1_555
O3 C6_2 1_555 1_555
O6 C6_2 1_555 1_555
S1_2 C2_2 1_555 1_555
Co4_2 O3 1_555 1_555
C5_2 S1_2 1_555 1_555
Co3 O1_2 1_555 1_555
C16_2 H10_2 1_555 1_555
C17_2 H11_2 1_555 1_555
C18_2 C17_2 1_555 1_555
H12_2 C18_2 1_555 1_555
N3 C16_2 1_555 1_555
N4_2 C13_2 1_555 1_555
Co4_2 N3 1_555 1_555
C16_2 N4_2 1_555 1_555
C17_2 N3 1_555 1_555
C18_2 N4_2 1_555 1_555
C1_3 C2_3 1_555 1_555
C2_3 C3_3 1_555 1_555
C3_3 H1_3 1_555 1_555
C4_3 C3_3 1_555 1_555
H2_3 C4_3 1_555 1_555
C5_3 C4_3 1_555 1_555
C6_3 C5_3 1_555 1_555
C9_2 H5_2 1_555 1_555
C15_2 C10_2 1_555 1_555
H9_2 C15_2 1_555 1_555
Co4_2 N1_2 1_555 1_555
N1_2 C7_2 1_555 1_555
O1_3 C1_3 1_555 1_555
O2_3 C1_3 1_555 1_555
O4_2 C6_3 1_555 1_555
S1_3 C2_3 1_555 1_555
Co4 O4_2 1_555 1_555
C5_3 S1_3 1_555 1_555
C9_2 N1_2 1_555 1_555
C9_2 N2_2 1_555 1_555
C10_2 N2_2 1_555 1_555
Co4_2 O1_3 1_555 1_555
C1_4 C2_4 1_555 1_555
C2_4 C3_4 1_555 1_555
C3_4 H1_4 1_555 1_555
C4_4 C3_4 1_555 1_555
H2_4 C4_4 1_555 1_555
C5_4 C4_4 1_555 1_555
C6_4 C5_4 1_555 1_555
O1_4 C1_4 1_555 1_555
O2_4 C1_4 1_555 1_555
O5 C6_4 1_555 1_555
O6_2 C6_4 1_555 1_555
S1_4 C2_4 1_555 1_555
C5_4 S1_4 1_555 1_555
Co4 O1_4 1_555 1_555
C12 C11 1_555 1_555
C8_3 C7_3 1_555 1_555
H4 C8_3 1_555 1_555
C9_3 H5_3 1_555 1_555
C10_3 C11_2 1_555 1_555
C11_2 H6 1_555 1_555
C12_2 C11_2 1_555 1_555
H7 C12_2 1_555 1_555
C13_3 C12_2 1_555 1_555
C14_2 C13_3 1_555 1_555
H8_3 C14_2 1_555 1_555
C15_3 C10_3 1_555 1_555
H9_3 C15_3 1_555 1_555
C16_3 H10_3 1_555 1_555
C17_3 H11_3 1_555 1_555
C18_3 C17_3 1_555 1_555
H12_3 C18_3 1_555 1_555
N1_3 C7_3 1_555 1_555
N2_3 C8_3 1_555 1_555
N5_2 C16_3 1_555 1_555
N4_3 C13_3 1_555 1_555
C9_3 N1_3 1_555 1_555
C9_3 N2_3 1_555 1_555
C10_3 N2_3 1_555 1_555
C14_2 C15_3 1_555 1_555
C16_3 N4_3 1_555 1_555
C17_3 N5_2 1_555 1_555
C18_3 N4_3 1_555 1_555
C8_4 C7_4 1_555 1_555
H4_3 C8_4 1_555 1_555
C9_4 H5_4 1_555 1_555
C10_4 C11_3 1_555 1_555
C11_3 H6_3 1_555 1_555
C12_3 C11_3 1_555 1_555
H7_3 C12_3 1_555 1_555
C13_4 C12_3 1_555 1_555
C14_3 C13_4 1_555 1_555
H8_4 C14_3 1_555 1_555
C15_4 C10_4 1_555 1_555
H9_4 C15_4 1_555 1_555
C16_4 H10_4 1_555 1_555
C17_4 H11_4 1_555 1_555
C18_4 C17_4 1_555 1_555
H12_4 C18_4 1_555 1_555
N1_4 C7_4 1_555 1_555
N2_4 C8_4 1_555 1_555
N3_2 C16_4 1_555 1_555
N4_4 C13_4 1_555 1_555
C9_4 N1_4 1_555 1_555
C9_4 N2_4 1_555 1_555
C10_4 N2_4 1_555 1_555
C14_3 C15_4 1_555 1_555
C16_4 N4_4 1_555 1_555
C17_4 N3_2 1_555 1_555
C18_4 N4_4 1_555 1_555
C12_4 C11_4 1_555 1_555

#END
