
###############################################################################
#
# This file contains modified crystal structure data generated from the
# MOF subset of the Cambridge Structural Database (CSD) v543 
# hosted by the Cambridge Crystallographic Data Centre (CCDC).
#
# This work is licensed under the Creative Commons
# Attribution-NonCommercial-ShareAlike 4.0 International License.
# To view a copy of this license, visit
# http://creativecommons.org/licenses/by-nc-sa/4.0/
# or send a letter to
# Creative Commons, PO Box 1866, Mountain View, CA 94042, USA.
#
# CIF created using the CSD Python API on 29 September 2022
# The structure has been converted into the P1 space group
# The structure has a 3D framework
# The original CSD entry ZECKID is in the tetragonal crystal system
# The framework has been calculated to contain at least 10.0% void space
# The void calculation uses a probe of radius 1.32A, grid spacing 0.4
#
###############################################################################

data_ZECKID
_chemical_formula_moiety         '(C56 H48 Cu12 N16 O25)n'
_symmetry_cell_setting           triclinic
_symmetry_space_group_name_H-M   'P 1'
_symmetry_Int_Tables_number      1
_space_group_name_Hall           'P 1'
loop_
_symmetry_equiv_pos_site_id
_symmetry_equiv_pos_as_xyz
1 x,y,z
_cell_length_a                   16.119(4)
_cell_length_b                   16.119(4)
_cell_length_c                   16.455(4)
_cell_angle_alpha                90
_cell_angle_beta                 90
_cell_angle_gamma                90
_cell_volume                     4275.37
loop_
_atom_site_label
_atom_site_type_symbol
_atom_site_fract_x
_atom_site_fract_y
_atom_site_fract_z
Cu1 Cu 0.0000 0.10143(6) 0.80027(7)
N1 N 0.0899(3) 0.0419(3) 0.7441(4)
O1 O 0.0000 0.0000 0.9071(7)
C1 C 0.2008(6) -0.0000 0.6770(6)
C2 C 0.1557(4) 0.0692(4) 0.7037(4)
C3 C 0.1729(6) 0.1597(4) 0.6926(6)
H1 H 0.1528 0.1901 0.7395
H2 H 0.1449 0.1794 0.6441
H3 H 0.2322 0.1683 0.6870
O2 O 0.3101(4) 0.0669(3) 0.6066(3)
C4 C 0.2752(6) -0.0000 0.6294(6)
Cu3 Cu 0.39857(6) 0.0000 0.55027(7)
O6 O 0.0669(3) 0.1899(4) 0.8566(3)
O1_2 O 0.0000 1.0000 0.9071(7)
C1_2 C 0.2008(6) 1.0000 0.6770(6)
C4_2 C 0.2752(6) 1.0000 0.6294(6)
Cu2 Cu -0.0000 0.89857(6) 0.80027(7)
Cu3_2 Cu 0.39857(6) 1.0000 0.55027(7)
N2 N 0.0899(3) 0.9581(3) 0.7441(4)
C6 C 0.1557(4) 0.9308(4) 0.7037(4)
C9 C 0.1729(6) 0.8403(4) 0.6926(6)
H4 H 0.1528 0.8099 0.7395
H7 H 0.1449 0.8206 0.6441
H10 H 0.2322 0.8317 0.6870
O3 O 0.3101(4) 0.9331(3) 0.6066(3)
O8 O 0.0669(3) 0.8101(4) 0.8566(3)
Cu1_2 Cu 1.0000 0.10143(6) 0.80027(7)
O1_3 O 1.0000 0.0000 0.9071(7)
Cu4 Cu 0.60143(6) 0.0000 0.55027(7)
N3 N 0.9101(3) 0.0419(3) 0.7441(4)
C5 C 0.7992(6) -0.0000 0.6770(6)
C7 C 0.8443(4) 0.0692(4) 0.7037(4)
C10 C 0.8271(6) 0.1597(4) 0.6926(6)
H5 H 0.8472 0.1901 0.7395
H8 H 0.8551 0.1794 0.6441
H11 H 0.7678 0.1683 0.6870
O4 O 0.6899(4) 0.0669(3) 0.6066(3)
O7 O 0.9331(3) 0.1899(4) 0.8566(3)
C12 C 0.7248(6) -0.0000 0.6294(6)
O1_4 O 1.0000 1.0000 0.9071(7)
Cu2_2 Cu 1.0000 0.89857(6) 0.80027(7)
Cu4_2 Cu 0.60143(6) 1.0000 0.55027(7)
N4 N 0.9101(3) 0.9581(3) 0.7441(4)
C5_2 C 0.7992(6) 1.0000 0.6770(6)
C8 C 0.8443(4) 0.9308(4) 0.7037(4)
C11 C 0.8271(6) 0.8403(4) 0.6926(6)
H6 H 0.8472 0.8099 0.7395
H9 H 0.8551 0.8206 0.6441
H12 H 0.7678 0.8317 0.6870
O5 O 0.6899(4) 0.9331(3) 0.6066(3)
O9 O 0.9331(3) 0.8101(4) 0.8566(3)
C12_2 C 0.7248(6) 1.0000 0.6294(6)
O1_5 O 0.0000 0.5000 0.1571(7)
Cu2_3 Cu 0.10143(6) 0.5000 0.05027(7)
O8_2 O 0.1899(4) 0.5669(3) 0.1066(3)
O9_2 O 0.1899(4) 0.4331(3) 0.1066(3)
C1_3 C 0.0000 0.7008(6) 0.9270(6)
C4_3 C 0.0000 0.7752(6) 0.8794(6)
N2_2 N 0.0419(3) 0.5899(3) 0.9941(4)
N4_2 N 0.0419(3) 0.4101(3) 0.9941(4)
C5_3 C 0.0000 0.2992(6) 0.9270(6)
C6_2 C 0.0692(4) 0.6557(4) 0.9537(4)
C8_2 C 0.0692(4) 0.3443(4) 0.9537(4)
C9_2 C 0.1597(4) 0.6729(6) 0.9426(6)
C11_2 C 0.1597(4) 0.3271(6) 0.9426(6)
H4_2 H 0.1901 0.6528 0.9895
H6_2 H 0.1901 0.3472 0.9895
H7_2 H 0.1794 0.6449 0.8941
H9_2 H 0.1794 0.3551 0.8941
H10_2 H 0.1683 0.7322 0.9370
H12_2 H 0.1683 0.2678 0.9370
C12_3 C 0.0000 0.2248(6) 0.8794(6)
Cu1_3 Cu 0.89857(6) 0.5000 0.05027(7)
O1_6 O 1.0000 0.5000 0.1571(7)
O6_2 O 0.8101(4) 0.5669(3) 0.1066(3)
O7_2 O 0.8101(4) 0.4331(3) 0.1066(3)
N1_2 N 0.9581(3) 0.5899(3) 0.9941(4)
C1_4 C 1.0000 0.7008(6) 0.9270(6)
C2_2 C 0.9308(4) 0.6557(4) 0.9537(4)
C3_2 C 0.8403(4) 0.6729(6) 0.9426(6)
H1_2 H 0.8099 0.6528 0.9895
H2_2 H 0.8206 0.6449 0.8941
H3_2 H 0.8317 0.7322 0.9370
C4_4 C 1.0000 0.7752(6) 0.8794(6)
N3_2 N 0.9581(3) 0.4101(3) 0.9941(4)
C5_4 C 1.0000 0.2992(6) 0.9270(6)
C7_2 C 0.9308(4) 0.3443(4) 0.9537(4)
C10_2 C 0.8403(4) 0.3271(6) 0.9426(6)
H5_2 H 0.8099 0.3472 0.9895
H8_2 H 0.8206 0.3551 0.8941
H11_2 H 0.8317 0.2678 0.9370
C12_4 C 1.0000 0.2248(6) 0.8794(6)
Cu1_4 Cu 0.5000 0.60143(6) 0.30027(7)
N1_3 N 0.5899(3) 0.5419(3) 0.2441(4)
O1_7 O 0.5000 0.5000 0.4071(7)
C1_5 C 0.7008(6) 0.5000 0.1770(6)
C2_3 C 0.6557(4) 0.5692(4) 0.2037(4)
C3_3 C 0.6729(6) 0.6597(4) 0.1926(6)
H1_3 H 0.6528 0.6901 0.2395
H2_3 H 0.6449 0.6794 0.1441
H3_3 H 0.7322 0.6683 0.1870
C4_5 C 0.7752(6) 0.5000 0.1294(6)
Cu2_4 Cu 0.5000 0.39857(6) 0.30027(7)
N2_3 N 0.5899(3) 0.4581(3) 0.2441(4)
N3_3 N 0.4101(3) 0.5419(3) 0.2441(4)
N4_3 N 0.4101(3) 0.4581(3) 0.2441(4)
C5_5 C 0.2992(6) 0.5000 0.1770(6)
C6_3 C 0.6557(4) 0.4308(4) 0.2037(4)
C7_3 C 0.3443(4) 0.5692(4) 0.2037(4)
C8_3 C 0.3443(4) 0.4308(4) 0.2037(4)
C9_3 C 0.6729(6) 0.3403(4) 0.1926(6)
C10_3 C 0.3271(6) 0.6597(4) 0.1926(6)
C11_3 C 0.3271(6) 0.3403(4) 0.1926(6)
H4_3 H 0.6528 0.3099 0.2395
H5_3 H 0.3472 0.6901 0.2395
H6_3 H 0.3472 0.3099 0.2395
H7_3 H 0.6449 0.3206 0.1441
H8_3 H 0.3551 0.6794 0.1441
H9_3 H 0.3551 0.3206 0.1441
H10_3 H 0.7322 0.3317 0.1870
H11_3 H 0.2678 0.6683 0.1870
H12_3 H 0.2678 0.3317 0.1870
O6_3 O 0.5669(3) 0.6899(4) 0.3566(3)
O7_3 O 0.4331(3) 0.6899(4) 0.3566(3)
O8_3 O 0.5669(3) 0.3101(4) 0.3566(3)
O9_3 O 0.4331(3) 0.3101(4) 0.3566(3)
C12_5 C 0.2248(6) 0.5000 0.1294(6)
N1_4 N 0.4581(3) 0.0899(3) 0.4941(4)
O1_8 O 0.5000 0.0000 0.6571(7)
C1_6 C 0.5000 0.2008(6) 0.4270(6)
C2_4 C 0.4308(4) 0.1557(4) 0.4537(4)
C3_4 C 0.3403(4) 0.1729(6) 0.4426(6)
H1_4 H 0.3099 0.1528 0.4895
H2_4 H 0.3206 0.1449 0.3941
H3_4 H 0.3317 0.2322 0.4370
C4_6 C 0.5000 0.2752(6) 0.3794(6)
N2_4 N 0.5419(3) 0.0899(3) 0.4941(4)
C6_4 C 0.5692(4) 0.1557(4) 0.4537(4)
C9_4 C 0.6597(4) 0.1729(6) 0.4426(6)
H4_4 H 0.6901 0.1528 0.4895
H7_4 H 0.6794 0.1449 0.3941
H10_4 H 0.6683 0.2322 0.4370
O1_9 O 0.5000 1.0000 0.6571(7)
N3_4 N 0.4581(3) 0.9101(3) 0.4941(4)
N4_4 N 0.5419(3) 0.9101(3) 0.4941(4)
C5_6 C 0.5000 0.7992(6) 0.4270(6)
C7_4 C 0.4308(4) 0.8443(4) 0.4537(4)
C8_4 C 0.5692(4) 0.8443(4) 0.4537(4)
C10_4 C 0.3403(4) 0.8271(6) 0.4426(6)
C11_4 C 0.6597(4) 0.8271(6) 0.4426(6)
H5_4 H 0.3099 0.8472 0.4895
H6_4 H 0.6901 0.8472 0.4895
H8_4 H 0.3206 0.8551 0.3941
H9_4 H 0.6794 0.8551 0.3941
H11_4 H 0.3317 0.7678 0.4370
H12_4 H 0.6683 0.7678 0.4370
C12_6 C 0.5000 0.7248(6) 0.3794(6)
loop_
_geom_bond_atom_site_label_1
_geom_bond_atom_site_label_2
_geom_bond_site_symmetry_1
_geom_bond_site_symmetry_2
Cu1 N1 1_555 1_555
N1 C2 1_555 1_555
O1 Cu1 1_555 1_555
C1 C2 1_555 1_555
C2 C3 1_555 1_555
C3 H1 1_555 1_555
H2 C3 1_555 1_555
H3 C3 1_555 1_555
O2 C4 1_555 1_555
C4 C1 1_555 1_555
Cu3 O2 1_555 1_555
O6 Cu1 1_555 1_555
C4_2 C1_2 1_555 1_555
Cu2 O1_2 1_555 1_555
C6 C1_2 1_555 1_555
C9 C6 1_555 1_555
H4 C9 1_555 1_555
H7 C9 1_555 1_555
H10 C9 1_555 1_555
O3 C4_2 1_555 1_555
O8 Cu2 1_555 1_555
Cu2 N2 1_555 1_555
Cu3_2 O3 1_555 1_555
N2 C6 1_555 1_555
O1_3 Cu1_2 1_555 1_555
Cu4 O4 1_555 1_555
N3 Cu1_2 1_555 1_555
C5 C7 1_555 1_555
C7 N3 1_555 1_555
C10 C7 1_555 1_555
H5 C10 1_555 1_555
H8 C10 1_555 1_555
H11 C10 1_555 1_555
O4 C12 1_555 1_555
O7 Cu1_2 1_555 1_555
C12 C5 1_555 1_555
Cu2_2 O1_4 1_555 1_555
N4 Cu2_2 1_555 1_555
C8 N4 1_555 1_555
C11 C8 1_555 1_555
H6 C11 1_555 1_555
H9 C11 1_555 1_555
H12 C11 1_555 1_555
O5 Cu4_2 1_555 1_555
O9 Cu2_2 1_555 1_555
C12_2 C5_2 1_555 1_555
C5_2 C8 1_555 1_555
O5 C12_2 1_555 1_555
Cu2_3 O1_5 1_555 1_555
O8_2 Cu2_3 1_555 1_555
O9_2 Cu2_3 1_555 1_555
C4_3 C1_3 1_555 1_555
C6_2 C1_3 1_555 1_555
C8_2 N4_2 1_555 1_555
C9_2 C6_2 1_555 1_555
C11_2 C8_2 1_555 1_555
H4_2 C9_2 1_555 1_555
H6_2 C11_2 1_555 1_555
H7_2 C9_2 1_555 1_555
H9_2 C11_2 1_555 1_555
H10_2 C9_2 1_555 1_555
H12_2 C11_2 1_555 1_555
O8 C4_3 1_555 1_555
C12_3 C5_3 1_555 1_555
N2_2 C6_2 1_555 1_555
C5_3 C8_2 1_555 1_555
O6 C12_3 1_555 1_555
O1_6 Cu1_3 1_555 1_555
O6_2 Cu1_3 1_555 1_555
O7_2 Cu1_3 1_555 1_555
N1_2 C2_2 1_555 1_555
C1_4 C2_2 1_555 1_555
C2_2 C3_2 1_555 1_555
C3_2 H1_2 1_555 1_555
H2_2 C3_2 1_555 1_555
H3_2 C3_2 1_555 1_555
O9 C4_4 1_555 1_555
C4_4 C1_4 1_555 1_555
C5_4 C7_2 1_555 1_555
C7_2 N3_2 1_555 1_555
C10_2 C7_2 1_555 1_555
H5_2 C10_2 1_555 1_555
H8_2 C10_2 1_555 1_555
H11_2 C10_2 1_555 1_555
O7 C12_4 1_555 1_555
C12_4 C5_4 1_555 1_555
Cu1_4 N1_3 1_555 1_555
N1_3 C2_3 1_555 1_555
O1_7 Cu1_4 1_555 1_555
C1_5 C2_3 1_555 1_555
C2_3 C3_3 1_555 1_555
C3_3 H1_3 1_555 1_555
H2_3 C3_3 1_555 1_555
H3_3 C3_3 1_555 1_555
O6_2 C4_5 1_555 1_555
C4_5 C1_5 1_555 1_555
Cu2_4 O1_7 1_555 1_555
N2_3 N1_3 1_555 1_555
N3_3 Cu1_4 1_555 1_555
N4_3 Cu2_4 1_555 1_555
C5_5 C7_3 1_555 1_555
C6_3 C1_5 1_555 1_555
C7_3 N3_3 1_555 1_555
C8_3 N4_3 1_555 1_555
C9_3 C6_3 1_555 1_555
C10_3 C7_3 1_555 1_555
C11_3 C8_3 1_555 1_555
H4_3 C9_3 1_555 1_555
H5_3 C10_3 1_555 1_555
H6_3 C11_3 1_555 1_555
H7_3 C9_3 1_555 1_555
H8_3 C10_3 1_555 1_555
H9_3 C11_3 1_555 1_555
H10_3 C9_3 1_555 1_555
H11_3 C10_3 1_555 1_555
H12_3 C11_3 1_555 1_555
O7_2 C4_5 1_555 1_555
O8_2 C12_5 1_555 1_555
O6_3 Cu1_4 1_555 1_555
O7_3 Cu1_4 1_555 1_555
O8_3 Cu2_4 1_555 1_555
O9_3 Cu2_4 1_555 1_555
C12_5 C5_5 1_555 1_555
Cu2_4 N2_3 1_555 1_555
N2_3 C6_3 1_555 1_555
N3_3 N4_3 1_555 1_555
C5_5 C8_3 1_555 1_555
O9_2 C12_5 1_555 1_555
Cu3 N1_4 1_555 1_555
N1_4 C2_4 1_555 1_555
O1_8 Cu3 1_555 1_555
C1_6 C2_4 1_555 1_555
C2_4 C3_4 1_555 1_555
C3_4 H1_4 1_555 1_555
H2_4 C3_4 1_555 1_555
H3_4 C3_4 1_555 1_555
O9_3 C4_6 1_555 1_555
C4_6 C1_6 1_555 1_555
Cu4 O1_8 1_555 1_555
N2_4 N1_4 1_555 1_555
C6_4 C1_6 1_555 1_555
C9_4 C6_4 1_555 1_555
H4_4 C9_4 1_555 1_555
H7_4 C9_4 1_555 1_555
H10_4 C9_4 1_555 1_555
O8_3 C4_6 1_555 1_555
Cu4 N2_4 1_555 1_555
N2_4 C6_4 1_555 1_555
O1_9 Cu3_2 1_555 1_555
Cu4_2 O1_9 1_555 1_555
N3_4 Cu3_2 1_555 1_555
N4_4 Cu4_2 1_555 1_555
C5_6 C7_4 1_555 1_555
C7_4 N3_4 1_555 1_555
C8_4 N4_4 1_555 1_555
C10_4 C7_4 1_555 1_555
C11_4 C8_4 1_555 1_555
H5_4 C10_4 1_555 1_555
H6_4 C11_4 1_555 1_555
H8_4 C10_4 1_555 1_555
H9_4 C11_4 1_555 1_555
H11_4 C10_4 1_555 1_555
H12_4 C11_4 1_555 1_555
O7_3 C12_6 1_555 1_555
C12_6 C5_6 1_555 1_555
N3_4 N4_4 1_555 1_555
C5_6 C8_4 1_555 1_555
O6_3 C12_6 1_555 1_555

#END
