
###############################################################################
#
# This file contains modified crystal structure data generated from the
# MOF subset of the Cambridge Structural Database (CSD) v543 
# hosted by the Cambridge Crystallographic Data Centre (CCDC).
#
# This work is licensed under the Creative Commons
# Attribution-NonCommercial-ShareAlike 4.0 International License.
# To view a copy of this license, visit
# http://creativecommons.org/licenses/by-nc-sa/4.0/
# or send a letter to
# Creative Commons, PO Box 1866, Mountain View, CA 94042, USA.
#
# CIF created using the CSD Python API on 29 September 2022
# The structure has been converted into the P1 space group
# The structure has a 3D framework
# The original CSD entry ZECTUZ is in the monoclinic crystal system
# The framework has been calculated to contain at least 10.0% void space
# The void calculation uses a probe of radius 1.32A, grid spacing 0.4
#
###############################################################################

data_ZECTUZ
_chemical_formula_moiety         '(C24 H20 Ga4 N4 O19 P4)n'
_symmetry_cell_setting           triclinic
_symmetry_space_group_name_H-M   'P 1'
_symmetry_Int_Tables_number      1
_space_group_name_Hall           'P 1'
loop_
_symmetry_equiv_pos_site_id
_symmetry_equiv_pos_as_xyz
1 x,y,z
_cell_length_a                   12.8171(11)
_cell_length_b                   8.5447(7)
_cell_length_c                   11.3809(9)
_cell_angle_alpha                90
_cell_angle_beta                 108.351(4)
_cell_angle_gamma                90
_cell_volume                     1183.03
loop_
_atom_site_label
_atom_site_type_symbol
_atom_site_fract_x
_atom_site_fract_y
_atom_site_fract_z
Ga1 Ga 0.42325(3) 0.26439(4) 0.56651(3)
P1 P 0.52356(7) 0.59427(9) 0.67407(8)
O2 O 0.56892(18) 0.1582(3) 0.5854(2)
O3 O 0.5971(2) 0.6410(3) 0.8017(2)
O4 O 0.4899(2) 0.4254(3) 0.6784(2)
O5 O 0.5809(2) 0.6219(3) 0.5788(2)
C1 C 0.5589(3) 0.0250(3) 0.5370(3)
N1 N 0.2637(2) 0.3455(4) 0.5386(3)
C2 C 0.0561(3) 0.4656(6) 0.5087(4)
C3 C 0.1329(4) 0.4526(8) 0.6209(5)
H1 H 0.1157 0.4835 0.6928
C4 C 0.2356(4) 0.3951(7) 0.6324(5)
H2 H 0.2886 0.3915 0.7124
C5 C 0.0856(5) 0.4163(11) 0.4084(6)
H3 H 0.0352 0.4236 0.3270
C6 C 0.1907(5) 0.3555(11) 0.4282(5)
H4 H 0.2103 0.3199 0.3589
H5 H 0.4238 0.6897 0.6428
O6 O 0.36585(19) 0.0709(3) 0.4561(2)
Ga4 Ga 0.57675(3) 0.76439(4) 0.93349(3)
Ga6 Ga 0.57675(3) 0.73561(4) 0.43349(3)
O13 O 0.4029(2) 0.1410(3) 0.6983(2)
O16 O 0.4191(2) 0.3781(3) 0.4212(2)
O1 O 0.63415(19) 0.9291(3) 0.5439(2)
O7 O 0.43108(18) 0.8418(3) 0.4146(2)
C7 C 0.4411(3) 0.9750(3) 0.4630(3)
N2 N 0.7363(2) 0.6545(4) 0.4614(3)
C8 C 0.9439(3) 0.5344(6) 0.4913(4)
C9 C 0.8671(4) 0.5474(8) 0.3791(5)
H6 H 0.8843 0.5165 0.3072
C10 C 0.7644(4) 0.6049(7) 0.3676(5)
H7 H 0.7114 0.6085 0.2876
C11 C 0.9144(5) 0.5837(11) 0.5916(6)
H8 H 0.9648 0.5764 0.6730
C12 C 0.8093(5) 0.6445(11) 0.5718(5)
H9 H 0.7897 0.6801 0.6411
P2 P 0.47644(7) 0.40573(9) 0.32593(8)
O8 O 0.4029(2) 0.3590(3) 0.1983(2)
O9 O 0.5101(2) 0.5746(3) 0.3216(2)
H10 H 0.5762 0.3103 0.3572
Ga7 Ga 0.42325(3) 0.23561(4) 0.06651(3)
O14 O 0.5971(2) 0.8590(3) 0.3017(2)
N2_2 N 0.2637(2) 0.1545(4) 0.0386(3)
C8_2 C 0.0561(3) 0.0344(6) 0.0087(4)
C9_2 C 0.1329(4) 0.0474(8) 0.1209(5)
H6_2 H 0.1157 0.0165 0.1928
C10_2 C 0.2356(4) 0.1049(7) 0.1324(5)
H7_2 H 0.2886 0.1085 0.2124
O9_2 O 0.4899(2) 0.0746(3) 0.1784(2)
O12 O 0.56892(18) 0.3418(3) 0.0854(2)
C11_2 C 0.0856(5) 0.0837(11) 0.9084(6)
H8_2 H 0.0352 0.0764 0.8270
C12_2 C 0.1907(5) 0.1445(11) 0.9282(5)
H9_2 H 0.2103 0.1801 0.8589
O11 O 0.36585(19) 0.4291(3) 0.9561(2)
O15 O 0.4191(2) 0.1219(3) 0.9212(2)
P2_2 P 0.52356(7) 0.90573(9) 0.17407(8)
O10 O 0.5809(2) 0.8781(3) 0.0788(2)
H10_2 H 0.4238 0.8103 0.1428
P1_2 P 0.47644(7) 0.09427(9) 0.82593(8)
H5_2 H 0.5762 0.1897 0.8572
C5_2 C 0.9144(5) 0.9163(11) 0.0916(6)
H3_2 H 0.9648 0.9236 0.1730
C6_2 C 0.8093(5) 0.8555(11) 0.0718(5)
H4_2 H 0.7897 0.8199 0.1411
O6_2 O 0.63415(19) 0.5709(3) 0.0439(2)
C7_2 C 0.5589(3) 0.4750(3) 0.0370(3)
O2_2 O 0.43108(18) 0.6582(3) 0.9146(2)
O4_2 O 0.5101(2) 0.9254(3) 0.8216(2)
C1_2 C 0.4411(3) 0.5250(3) 0.9630(3)
N1_2 N 0.7363(2) 0.8455(4) 0.9614(3)
C2_2 C 0.9439(3) 0.9656(6) 0.9913(4)
C3_2 C 0.8671(4) 0.9526(8) 0.8791(5)
H1_2 H 0.8843 0.9835 0.8072
C4_2 C 0.7644(4) 0.8951(7) 0.8676(5)
H2_2 H 0.7114 0.8915 0.7876
loop_
_geom_bond_atom_site_label_1
_geom_bond_atom_site_label_2
_geom_bond_site_symmetry_1
_geom_bond_site_symmetry_2
Ga1 O2 1_555 1_555
P1 O3 1_555 1_555
O2 C1 1_555 1_555
O3 Ga4 1_555 1_555
O4 Ga1 1_555 1_555
O5 P1 1_555 1_555
N1 Ga1 1_555 1_555
C2 C3 1_555 1_555
C3 H1 1_555 1_555
C4 N1 1_555 1_555
H2 C4 1_555 1_555
C5 C2 1_555 1_555
H3 C5 1_555 1_555
C6 N1 1_555 1_555
H4 C6 1_555 1_555
H5 P1 1_555 1_555
O6 Ga1 1_555 1_555
Ga6 O5 1_555 1_555
O13 Ga1 1_555 1_555
O16 Ga1 1_555 1_555
P1 O4 1_555 1_555
C3 C4 1_555 1_555
C5 C6 1_555 1_555
O7 C7 1_555 1_555
Ga6 O1 1_555 1_555
O7 Ga6 1_555 1_555
N2 C10 1_555 1_555
C9 C8 1_555 1_555
H6 C9 1_555 1_555
C10 C9 1_555 1_555
H7 C10 1_555 1_555
C11 C8 1_555 1_555
H8 C11 1_555 1_555
C12 N2 1_555 1_555
H9 C12 1_555 1_555
Ga6 N2 1_555 1_555
P2 O8 1_555 1_555
O8 Ga7 1_555 1_555
O9 Ga6 1_555 1_555
O16 P2 1_555 1_555
H10 P2 1_555 1_555
O14 Ga6 1_555 1_555
C11 C12 1_555 1_555
P2 O9 1_555 1_555
N2_2 C10_2 1_555 1_555
C9_2 C8_2 1_555 1_555
H6_2 C9_2 1_555 1_555
C10_2 C9_2 1_555 1_555
H7_2 C10_2 1_555 1_555
Ga7 N2_2 1_555 1_555
O9_2 Ga7 1_555 1_555
O12 Ga7 1_555 1_555
H8_2 C11_2 1_555 1_555
H9_2 C12_2 1_555 1_555
C11_2 C12_2 1_555 1_555
P2_2 O14 1_555 1_555
O10 P2_2 1_555 1_555
H10_2 P2_2 1_555 1_555
P1_2 O13 1_555 1_555
O15 P1_2 1_555 1_555
H5_2 P1_2 1_555 1_555
H3_2 C5_2 1_555 1_555
H4_2 C6_2 1_555 1_555
O12 C7_2 1_555 1_555
C7_2 O6_2 1_555 1_555
C5_2 C6_2 1_555 1_555
Ga4 O2_2 1_555 1_555
O11 C1_2 1_555 1_555
O2_2 C1_2 1_555 1_555
O4_2 Ga4 1_555 1_555
N1_2 Ga4 1_555 1_555
C2_2 C3_2 1_555 1_555
C3_2 H1_2 1_555 1_555
C4_2 N1_2 1_555 1_555
H2_2 C4_2 1_555 1_555
C3_2 C4_2 1_555 1_555

#END
