
###############################################################################
#
# This file contains modified crystal structure data generated from the
# MOF subset of the Cambridge Structural Database (CSD) v543 
# hosted by the Cambridge Crystallographic Data Centre (CCDC).
#
# This work is licensed under the Creative Commons
# Attribution-NonCommercial-ShareAlike 4.0 International License.
# To view a copy of this license, visit
# http://creativecommons.org/licenses/by-nc-sa/4.0/
# or send a letter to
# Creative Commons, PO Box 1866, Mountain View, CA 94042, USA.
#
# CIF created using the CSD Python API on 29 September 2022
# The structure has been converted into the P1 space group
# The structure has a 3D framework
# The original CSD entry ZECVAH is in the triclinic crystal system
# The framework has been calculated to contain at least 10.0% void space
# The void calculation uses a probe of radius 1.32A, grid spacing 0.4
#
###############################################################################

data_ZECVAH
_chemical_formula_moiety         '(C96 H80 In16 N14 O74 P16)n'
_symmetry_cell_setting           triclinic
_symmetry_space_group_name_H-M   'P 1'
_symmetry_Int_Tables_number      1
_space_group_name_Hall           'P 1'
loop_
_symmetry_equiv_pos_site_id
_symmetry_equiv_pos_as_xyz
1 x,y,z
_cell_length_a                   12.7728(17)
_cell_length_b                   18.179(2)
_cell_length_c                   20.814(3)
_cell_angle_alpha                89.421(3)
_cell_angle_beta                 84.273(3)
_cell_angle_gamma                89.210(3)
_cell_volume                     4808.18
loop_
_atom_site_label
_atom_site_type_symbol
_atom_site_fract_x
_atom_site_fract_y
_atom_site_fract_z
N4 N 0.0017(4) 0.6698(3) 0.2702(3)
H8 H 0.0289 0.6827 0.1754
H10 H 0.0007 0.3830 0.2893
H31 H 0.0398 0.2147 0.1949
In14 In 0.16025(3) 0.62301(2) 0.28615(2)
In18 In 0.14687(4) 0.13348(2) 0.30536(2)
In19 In 0.03821(4) 0.38292(2) 0.43510(2)
H1 H 0.0016 0.8782 0.2741
In10 In 0.02461(3) 0.88447(2) 0.42482(2)
O1 O 0.2914(3) 0.0658(2) 0.3104(2)
O15 O 0.1125(4) 0.0298(3) 0.2574(3)
C7 C 0.2921(5) 0.0064(3) 0.2797(3)
In2 In 0.48970(3) 0.61225(2) 0.07374(2)
In3 In 0.34181(3) 0.86790(2) 0.21031(2)
In5 In 0.47730(4) 0.11800(2) 0.06309(2)
In8 In 0.33644(4) 0.35188(3) 0.18955(2)
P1 P 0.29075(12) 0.70618(8) 0.14809(7)
P2 P 0.21948(12) 0.78459(9) 0.34897(7)
P3 P 0.13055(12) 0.04572(9) 0.44188(7)
P5 P 0.26893(13) 0.18483(10) 0.15110(7)
P6 P 0.22873(13) 0.29710(9) 0.34478(7)
P7 P 0.13034(12) 0.55109(9) 0.43316(8)
P8 P 0.36002(13) 0.45733(9) 0.05878(8)
O4 O 0.1931(4) 0.9295(3) 0.2151(2)
O6 O 0.1943(4) 0.4204(3) 0.1914(2)
O8 O 0.1247(3) 0.5267(3) 0.2281(2)
O9 O 0.1162(4) 0.3097(3) 0.5004(2)
O12 O 0.3680(3) 0.9626(2) 0.2724(2)
O13 O 0.0853(4) 0.2086(3) 0.5600(2)
O14 O 0.0820(4) 0.0581(3) 0.5099(2)
O17 O 0.3030(4) 0.5543(3) 0.2845(3)
O18 O 0.0931(4) 0.5653(3) 0.3670(2)
O20 O 0.5985(4) 0.7050(3) 0.0524(2)
N1 N 0.5893(4) 0.0704(3) 0.1280(3)
O21 O 0.3982(4) 0.3961(3) 0.1010(3)
O22 O 0.4027(4) 0.6767(3) 0.1454(2)
O23 O 0.3754(4) 0.4515(3) 0.2425(3)
O24 O 0.2168(4) 0.6725(3) 0.1995(3)
O25 O 0.1154(4) 0.8251(3) 0.3517(3)
N2 N 0.5057(4) 0.8295(3) 0.2237(3)
O26 O 0.2922(5) 0.3070(4) 0.2808(3)
N3 N 0.9336(4) 0.4328(3) 0.3663(3)
O27 O 0.2735(5) 0.2667(3) 0.1399(2)
O28 O 0.2905(4) 0.7892(3) 0.1497(3)
O29 O 0.3743(4) 0.1470(3) 0.1455(2)
O30 O 0.0762(4) 0.0900(3) 0.3927(2)
O31 O 0.3859(4) 0.0292(3) 0.0445(3)
N6 N 0.5961(4) 0.5782(3) 0.1480(3)
O32 O 0.2056(4) 0.7020(3) 0.3477(3)
O33 O 0.0699(5) 0.5930(4) 0.4858(3)
O34 O 0.3739(4) 0.5337(3) 0.0853(3)
N7 N 0.4956(5) 0.3064(3) 0.2040(3)
O36 O 0.1374(5) 0.3476(4) 0.3529(3)
O37 O 0.2982(4) 0.8100(3) 0.2954(3)
O38 O 0.2063(5) 0.1658(4) 0.2131(3)
O39 O 0.1365(4) 0.4696(3) 0.4497(3)
N8 N 0.9907(5) 0.1787(4) 0.2824(3)
C2 C 0.1897(5) 0.9866(3) 0.2485(3)
C4 C 0.5674(5) 0.7504(3) 0.0124(3)
C5 C 0.1963(5) 0.4804(4) 0.2213(3)
C6 C 0.3001(5) 0.4967(4) 0.2523(3)
C8 C 0.0648(5) 0.2535(4) 0.5165(3)
O40 O 0.2049(6) 0.2184(3) 0.3574(3)
C10 C 0.5621(6) 0.5660(4) 0.2087(3)
H2 H 0.4906 0.5772 0.2226
C12 C 0.8015(6) 0.4928(4) 0.2810(3)
C13 C 0.7928(6) 0.5132(5) 0.3451(4)
H4 H 0.7400 0.5475 0.3609
C14 C 0.6253(6) 0.5376(5) 0.2534(3)
H5 H 0.5965 0.5276 0.2964
C16 C 0.7301(5) 0.5238(4) 0.2351(3)
C17 C 0.8070(5) 0.7349(4) 0.2518(3)
C18 C 0.5526(5) 0.0456(4) 0.1860(3)
H6 H 0.4792 0.0487 0.1986
C19 C 0.6928(6) 0.0635(6) 0.1100(4)
H7 H 0.7200 0.0802 0.0684
C20 C 0.9782(6) 0.6912(7) 0.2112(4)
C21 C 0.8611(6) 0.4834(4) 0.3862(4)
H9 H 0.8564 0.4993 0.4297
C22 C 0.9460(6) 0.4164(5) 0.3043(3)
C23 C 0.8826(6) 0.4460(5) 0.2604(4)
H11 H 0.8953 0.4340 0.2160
C24 C 0.9060(6) 0.1732(4) 0.3241(3)
H12 H 0.9119 0.1506 0.3650
C25 C 0.7235(5) 0.0084(4) 0.2121(4)
C26 C 0.6915(6) 0.2554(4) 0.2332(4)
C27 C 0.6009(6) 0.2183(4) 0.2541(4)
H13 H 0.6048 0.1748 0.2794
C28 C 0.5828(6) 0.3404(4) 0.1797(4)
H14 H 0.5767 0.3823 0.1526
C29 C 0.7031(5) 0.7690(4) 0.2415(3)
C30 C 0.6996(6) 0.5667(6) 0.1302(4)
H15 H 0.7265 0.5771 0.0869
C31 C 0.9281(6) 0.6796(5) 0.3190(4)
H16 H 0.9417 0.6631 0.3608
C32 C 0.5767(6) 0.8195(5) 0.1740(4)
H17 H 0.5603 0.8336 0.1320
C33 C 0.8841(7) 0.7248(7) 0.2002(4)
H18 H 0.8721 0.7409 0.1580
C34 C 0.5047(6) 0.2440(4) 0.2384(4)
H19 H 0.4432 0.2171 0.2522
C35 C 0.8086(6) 0.1997(5) 0.3097(4)
H20 H 0.7497 0.1967 0.3413
C36 C 0.7677(6) 0.5402(6) 0.1730(4)
H21 H 0.8404 0.5335 0.1591
C37 C 0.6754(6) 0.7886(5) 0.1814(4)
H22 H 0.7242 0.7809 0.1445
C38 C 0.6820(7) 0.3163(5) 0.1928(5)
H23 H 0.7429 0.3411 0.1745
C39 C 0.6181(6) 0.0153(5) 0.2285(4)
C40 C 0.7966(6) 0.2302(4) 0.2507(4)
C41 C 0.7611(6) 0.0323(6) 0.1510(4)
H25 H 0.8339 0.0274 0.1369
H26 H 0.7206 0.0302 0.3355
C44 C 0.5321(7) 0.8135(6) 0.2824(4)
H28 H 0.4823 0.8231 0.3185
C45 C 0.8320(6) 0.7131(5) 0.3113(4)
H29 H 0.7828 0.7210 0.3480
C46 C 0.6287(7) 0.7834(7) 0.2934(4)
H30 H 0.6443 0.7726 0.3363
C47 C 0.9796(8) 0.2107(8) 0.2254(5)
C48 C 0.8854(8) 0.2379(8) 0.2089(6)
H32 H 0.8818 0.2620 0.1685
H33 H 0.2151 0.1549 0.1072
H34 H 0.2681 0.8101 0.4103
H36 H 0.2222 0.5871 0.4401
H37 H 0.2560 0.6923 0.0916
H38 H 0.2553 0.4575 0.0551
H39 H 0.2382 0.0559 0.4419
H40 H 0.2840 0.3165 0.3992
O43 O 0.3886(4) 0.1894(2) 0.0015(2)
O44 O 0.5563(4) 0.2254(3) 0.0649(2)
O45 O 0.5933(4) 0.5490(3) 0.0100(2)
O49 O 0.4018(4) 0.9344(3) 0.1325(2)
O3 O 0.4216(4) 0.6731(2) 0.9962(2)
O5 O 0.6114(4) 0.8106(2) 0.9985(2)
O7 O 0.4437(4) 0.7746(3) 0.9351(2)
O10 O 0.4067(4) 0.4510(3) 0.9900(2)
C1 C 0.4693(5) 0.7307(3) 0.9782(3)
In12 In 0.51030(3) 0.38775(2) 0.92626(2)
In16 In 0.52270(4) 0.88200(2) 0.93691(2)
O52 O 0.5905(4) 0.1036(3) 0.9834(3)
P4 P 0.36619(12) 0.95066(9) 0.06624(7)
O16 O 0.1386(4) 0.9639(3) 0.4251(2)
N5 N 0.9249(4) 0.9269(3) 0.3490(3)
O35 O 0.4095(4) 0.8964(3) 0.0166(3)
C9 C 0.9430(5) 0.9092(4) 0.2871(3)
C11 C 0.8794(6) 0.9345(5) 0.2400(3)
H3 H 0.8948 0.9208 0.1961
C15 C 0.7948(5) 0.9792(4) 0.2586(3)
H24 H 0.5890 0.9990 0.2699
C42 C 0.7784(7) 0.9990(5) 0.3214(4)
C43 C 0.8455(7) 0.9737(5) 0.3649(4)
H27 H 0.8346 0.9904 0.4082
H35 H 0.2587 0.9493 0.0678
O42 O 0.0862(4) 0.8185(3) 0.5019(2)
O2 O 0.9138(4) 0.1815(3) 0.4981(2)
O11 O 0.9469(4) 0.2808(3) 0.4357(2)
C3 C 0.9666(5) 0.2368(3) 0.4797(3)
In11 In 0.97539(3) 0.11553(2) 0.57518(2)
In20 In 0.96179(4) 0.61708(2) 0.56490(2)
O51 O 0.9301(5) 0.4070(4) 0.5142(3)
O46 O 0.9147(4) 0.7914(3) 0.4400(2)
O47 O 0.9180(4) 0.9419(3) 0.4901(2)
N11 N 0.0751(4) 0.0731(3) 0.6510(3)
O11_2 O 0.0531(4) 0.7192(3) 0.5643(2)
C3_2 C 0.0334(5) 0.7632(3) 0.5203(3)
N9 N 0.0664(4) 0.5672(3) 0.6337(3)
N12 N 0.0093(5) 0.8213(4) 0.7176(3)
P4_2 P 0.63381(12) 0.04934(9) 0.93376(7)
O16_2 O 0.8614(4) 0.0361(3) 0.5749(2)
O19 O 0.5982(4) 0.0656(3) 0.8675(2)
C9_2 C 0.0570(5) 0.0908(4) 0.7129(3)
C11_2 C 0.1206(6) 0.0655(5) 0.7600(3)
H3_2 H 0.1052 0.0792 0.8039
C15_2 C 0.2052(5) 0.0208(4) 0.7414(3)
H24_2 H 0.4110 0.0010 0.7301
C42_2 C 0.2216(7) 0.0010(5) 0.6786(4)
C43_2 C 0.1545(7) 0.0263(5) 0.6351(4)
H27_2 H 0.1654 0.0096 0.5918
H35_2 H 0.7413 0.0507 0.9322
In13 In 0.65819(3) 0.13210(2) 0.78969(2)
O50 O 0.8846(4) 0.1749(3) 0.6483(3)
O3_2 O 0.5784(4) 0.3269(2) 0.0038(2)
C1_2 C 0.5307(5) 0.2693(3) 0.0218(3)
In4 In 0.83975(3) 0.37699(2) 0.71385(2)
In6 In 0.85313(4) 0.86652(2) 0.69464(2)
In8_2 In 0.66356(4) 0.64812(3) 0.81045(2)
P1_2 P 0.70925(12) 0.29382(8) 0.85191(7)
P2_2 P 0.78052(12) 0.21541(9) 0.65103(7)
P3_2 P 0.86945(12) 0.95428(9) 0.55812(7)
P5_2 P 0.73107(13) 0.81517(10) 0.84890(7)
P6_2 P 0.77127(13) 0.70290(9) 0.65522(7)
P7_2 P 0.86966(12) 0.44891(9) 0.56684(8)
P8_2 P 0.63998(13) 0.54267(9) 0.94122(8)
O4_2 O 0.8069(4) 0.0705(3) 0.7849(2)
O6_2 O 0.8057(4) 0.5796(3) 0.8086(2)
O8_2 O 0.8753(3) 0.4733(3) 0.7719(2)
O9_2 O 0.8838(4) 0.6903(3) 0.4996(2)
O12_2 O 0.6320(3) 0.0374(2) 0.7276(2)
O17_2 O 0.6970(4) 0.4457(3) 0.7155(3)
O18_2 O 0.9069(4) 0.4347(3) 0.6330(2)
O20_2 O 0.4015(4) 0.2950(3) 0.9476(2)
N1_2 N 0.4107(4) 0.9296(3) 0.8720(3)
O21_2 O 0.6018(4) 0.6039(3) 0.8990(3)
O22_2 O 0.5973(4) 0.3233(3) 0.8546(2)
O23_2 O 0.6246(4) 0.5485(3) 0.7575(3)
O24_2 O 0.7832(4) 0.3275(3) 0.8005(3)
N2_2 N 0.4943(4) 0.1705(3) 0.7763(3)
O26_2 O 0.7078(5) 0.6930(4) 0.7192(3)
O27_2 O 0.7265(5) 0.7333(3) 0.8601(2)
O28_2 O 0.7095(4) 0.2108(3) 0.8503(3)
O29_2 O 0.6257(4) 0.8530(3) 0.8545(2)
O30_2 O 0.9238(4) 0.9100(3) 0.6073(2)
O31_2 O 0.6141(4) 0.9708(3) 0.9555(3)
N6_2 N 0.4039(4) 0.4218(3) 0.8520(3)
O32_2 O 0.7944(4) 0.2980(3) 0.6523(3)
O34_2 O 0.6261(4) 0.4663(3) 0.9147(3)
N7_2 N 0.5044(5) 0.6936(3) 0.7960(3)
O36_2 O 0.8626(5) 0.6524(4) 0.6471(3)
O37_2 O 0.7018(4) 0.1900(3) 0.7046(3)
O38_2 O 0.7937(5) 0.8342(4) 0.7869(3)
O39_2 O 0.8635(4) 0.5304(3) 0.5503(3)
C2_2 C 0.8103(5) 0.0134(3) 0.7515(3)
C4_2 C 0.4326(5) 0.2496(3) 0.9876(3)
C5_2 C 0.8037(5) 0.5196(4) 0.7787(3)
C6_2 C 0.6999(5) 0.5033(4) 0.7477(3)
C8_2 C 0.9352(5) 0.7465(4) 0.4835(3)
O40_2 O 0.7951(6) 0.7816(3) 0.6426(3)
C10_2 C 0.4379(6) 0.4340(4) 0.7913(3)
H2_2 H 0.5094 0.4228 0.7774
C12_2 C 0.1985(6) 0.5072(4) 0.7190(3)
C13_2 C 0.2072(6) 0.4868(5) 0.6549(4)
H4_2 H 0.2600 0.4525 0.6391
C14_2 C 0.3747(6) 0.4624(5) 0.7466(3)
H5_2 H 0.4035 0.4724 0.7036
C16_2 C 0.2699(5) 0.4762(4) 0.7649(3)
C17_2 C 0.1930(5) 0.2651(4) 0.7482(3)
C18_2 C 0.4474(5) 0.9544(4) 0.8140(3)
H6_2 H 0.5208 0.9513 0.8014
C19_2 C 0.3072(6) 0.9365(6) 0.8900(4)
H7_2 H 0.2800 0.9198 0.9316
C20_2 C 0.0218(6) 0.3088(7) 0.7888(4)
C21_2 C 0.1389(6) 0.5166(4) 0.6138(4)
H9_2 H 0.1436 0.5007 0.5703
C22_2 C 0.0540(6) 0.5836(5) 0.6957(3)
C23_2 C 0.1174(6) 0.5540(5) 0.7396(4)
H11_2 H 0.1047 0.5660 0.7840
C24_2 C 0.0940(6) 0.8268(4) 0.6759(3)
H12_2 H 0.0881 0.8494 0.6350
C25_2 C 0.2765(5) 0.9916(4) 0.7879(4)
C26_2 C 0.3085(6) 0.7446(4) 0.7668(4)
C27_2 C 0.3991(6) 0.7817(4) 0.7459(4)
H13_2 H 0.3952 0.8252 0.7206
C28_2 C 0.4172(6) 0.6596(4) 0.8203(4)
H14_2 H 0.4233 0.6177 0.8474
C29_2 C 0.2969(5) 0.2310(4) 0.7585(3)
C30_2 C 0.3004(6) 0.4333(6) 0.8698(4)
H15_2 H 0.2735 0.4229 0.9131
C31_2 C 0.0719(6) 0.3204(5) 0.6810(4)
H16_2 H 0.0583 0.3369 0.6392
C32_2 C 0.4233(6) 0.1805(5) 0.8260(4)
H17_2 H 0.4397 0.1664 0.8680
C33_2 C 0.1159(7) 0.2752(7) 0.7998(4)
H18_2 H 0.1279 0.2591 0.8420
C34_2 C 0.4953(6) 0.7560(4) 0.7616(4)
H19_2 H 0.5568 0.7829 0.7478
C35_2 C 0.1914(6) 0.8003(5) 0.6903(4)
H20_2 H 0.2503 0.8033 0.6587
C36_2 C 0.2323(6) 0.4598(6) 0.8270(4)
H21_2 H 0.1596 0.4665 0.8409
C37_2 C 0.3246(6) 0.2114(5) 0.8186(4)
H22_2 H 0.2758 0.2191 0.8555
C38_2 C 0.3180(7) 0.6837(5) 0.8072(5)
H23_2 H 0.2571 0.6589 0.8255
C39_2 C 0.3819(6) 0.9847(5) 0.7715(4)
C40_2 C 0.2034(6) 0.7698(4) 0.7493(4)
C41_2 C 0.2389(6) 0.9677(6) 0.8490(4)
H25_2 H 0.1661 0.9726 0.8631
H26_2 H 0.2794 0.9698 0.6645
C44_2 C 0.4679(7) 0.1865(6) 0.7176(4)
H28_2 H 0.5177 0.1769 0.6815
C45_2 C 0.1680(6) 0.2869(5) 0.6887(4)
H29_2 H 0.2172 0.2790 0.6520
C46_2 C 0.3713(7) 0.2166(7) 0.7066(4)
H30_2 H 0.3557 0.2274 0.6637
C47_2 C 0.0204(8) 0.7893(8) 0.7746(5)
C48_2 C 0.1146(8) 0.7621(8) 0.7911(6)
H32_2 H 0.1182 0.7380 0.8315
H33_2 H 0.7849 0.8451 0.8928
H34_2 H 0.7319 0.1899 0.5897
H36_2 H 0.7778 0.4129 0.5599
H37_2 H 0.7440 0.3077 0.9084
H38_2 H 0.7447 0.5425 0.9449
H39_2 H 0.7618 0.9441 0.5581
H40_2 H 0.7160 0.6835 0.6008
O41 O 0.7086(3) 0.9342(2) 0.6896(2)
O48 O 0.8875(4) 0.9702(3) 0.7426(3)
N10 N 0.9983(4) 0.3302(3) 0.7298(3)
C7_2 C 0.7079(5) 0.9936(3) 0.7203(3)
H1_2 H 0.9984 0.1218 0.7259
H8_2 H 0.9711 0.3173 0.8246
H10_2 H 0.9993 0.6170 0.7107
H31_2 H 0.9602 0.7853 0.8051
loop_
_geom_bond_atom_site_label_1
_geom_bond_atom_site_label_2
_geom_bond_site_symmetry_1
_geom_bond_site_symmetry_2
In14 N4 1_555 1_555
O1 C7 1_555 1_555
In18 O1 1_555 1_555
O15 In18 1_555 1_555
In3 O4 1_555 1_555
In14 O8 1_555 1_555
In5 N1 1_555 1_555
In18 O30 1_555 1_555
In19 O9 1_555 1_555
In8 O6 1_555 1_555
P1 O22 1_555 1_555
P2 O25 1_555 1_555
P3 O14 1_555 1_555
P5 O27 1_555 1_555
P6 O26 1_555 1_555
P7 O18 1_555 1_555
O4 C2 1_555 1_555
O6 C5 1_555 1_555
O8 C5 1_555 1_555
O9 C8 1_555 1_555
O12 In3 1_555 1_555
O13 C8 1_555 1_555
O17 In14 1_555 1_555
O18 In14 1_555 1_555
O20 In2 1_555 1_555
N1 C18 1_555 1_555
O21 In8 1_555 1_555
O22 In2 1_555 1_555
O23 In8 1_555 1_555
O24 In14 1_555 1_555
O25 In10 1_555 1_555
N2 In3 1_555 1_555
O26 In8 1_555 1_555
N3 C21 1_555 1_555
O27 In8 1_555 1_555
O28 In3 1_555 1_555
O29 In5 1_555 1_555
O30 P3 1_555 1_555
O31 In5 1_555 1_555
N6 In2 1_555 1_555
O32 In14 1_555 1_555
O33 P7 1_555 1_555
O34 In2 1_555 1_555
N7 In8 1_555 1_555
O36 In19 1_555 1_555
O37 In3 1_555 1_555
O38 In18 1_555 1_555
O39 In19 1_555 1_555
N8 C24 1_555 1_555
C4 O20 1_555 1_555
C5 C6 1_555 1_555
C6 O17 1_555 1_555
O40 In18 1_555 1_555
C10 N6 1_555 1_555
H2 C10 1_555 1_555
C12 C13 1_555 1_555
C13 H4 1_555 1_555
C14 C10 1_555 1_555
H5 C14 1_555 1_555
C16 C12 1_555 1_555
C17 C29 1_555 1_555
C18 H6 1_555 1_555
C19 N1 1_555 1_555
H7 C19 1_555 1_555
C21 C13 1_555 1_555
H9 C21 1_555 1_555
C22 N3 1_555 1_555
C23 C12 1_555 1_555
H11 C23 1_555 1_555
C24 H12 1_555 1_555
C26 C27 1_555 1_555
C27 H13 1_555 1_555
C28 N7 1_555 1_555
H14 C28 1_555 1_555
C29 C37 1_555 1_555
C30 N6 1_555 1_555
H15 C30 1_555 1_555
H16 C31 1_555 1_555
C32 N2 1_555 1_555
H17 C32 1_555 1_555
C33 C17 1_555 1_555
H18 C33 1_555 1_555
C34 N7 1_555 1_555
H19 C34 1_555 1_555
C35 C24 1_555 1_555
H20 C35 1_555 1_555
C36 C16 1_555 1_555
H21 C36 1_555 1_555
C37 C32 1_555 1_555
H22 C37 1_555 1_555
C38 C26 1_555 1_555
H23 C38 1_555 1_555
C39 C18 1_555 1_555
C40 C26 1_555 1_555
C41 C19 1_555 1_555
H25 C41 1_555 1_555
C44 N2 1_555 1_555
H28 C44 1_555 1_555
C45 C17 1_555 1_555
H29 C45 1_555 1_555
C46 C29 1_555 1_555
H30 C46 1_555 1_555
C47 N8 1_555 1_555
C48 C40 1_555 1_555
H32 C48 1_555 1_555
H33 P5 1_555 1_555
H34 P2 1_555 1_555
H36 P7 1_555 1_555
H37 P1 1_555 1_555
H38 P8 1_555 1_555
H39 P3 1_555 1_555
H40 P6 1_555 1_555
O43 In5 1_555 1_555
O44 In5 1_555 1_555
O45 In2 1_555 1_555
O49 In3 1_555 1_555
P1 O24 1_555 1_555
P1 O28 1_555 1_555
P2 O32 1_555 1_555
P2 O37 1_555 1_555
P5 O29 1_555 1_555
P5 O38 1_555 1_555
P6 O36 1_555 1_555
P6 O40 1_555 1_555
P7 O39 1_555 1_555
P8 O21 1_555 1_555
P8 O34 1_555 1_555
O23 C6 1_555 1_555
C14 C16 1_555 1_555
C20 C33 1_555 1_555
C22 C23 1_555 1_555
C25 C39 1_555 1_555
C25 C41 1_555 1_555
C27 C34 1_555 1_555
C28 C38 1_555 1_555
C30 C36 1_555 1_555
C31 C45 1_555 1_555
C35 C40 1_555 1_555
C44 C46 1_555 1_555
C47 C48 1_555 1_555
O3 C1 1_555 1_555
O7 C1 1_555 1_555
O10 In12 1_555 1_555
In16 O5 1_555 1_555
O7 In16 1_555 1_555
In10 O16 1_555 1_555
P4 O49 1_555 1_555
N5 C9 1_555 1_555
O35 P4 1_555 1_555
C11 C9 1_555 1_555
H3 C11 1_555 1_555
C15 C11 1_555 1_555
C42 C15 1_555 1_555
C43 N5 1_555 1_555
H27 C43 1_555 1_555
H35 P4 1_555 1_555
O42 In10 1_555 1_555
C42 C43 1_555 1_555
O2 C3 1_555 1_555
C3 O11 1_555 1_555
In11 O2 1_555 1_555
O42 C3_2 1_555 1_555
C3_2 O11_2 1_555 1_555
In11 O16_2 1_555 1_555
P4_2 O19 1_555 1_555
O19 In13 1_555 1_555
N11 C9_2 1_555 1_555
O52 P4_2 1_555 1_555
C11_2 C9_2 1_555 1_555
H3_2 C11_2 1_555 1_555
C15_2 C11_2 1_555 1_555
C42_2 C15_2 1_555 1_555
C43_2 N11 1_555 1_555
H27_2 C43_2 1_555 1_555
H35_2 P4_2 1_555 1_555
O50 In11 1_555 1_555
C42_2 C43_2 1_555 1_555
O3_2 C1_2 1_555 1_555
O44 C1_2 1_555 1_555
In13 O4_2 1_555 1_555
In4 O8_2 1_555 1_555
In16 N1_2 1_555 1_555
In6 O30_2 1_555 1_555
In20 O9_2 1_555 1_555
In8_2 O6_2 1_555 1_555
P1_2 O22_2 1_555 1_555
P2_2 O50 1_555 1_555
P3_2 O47 1_555 1_555
P5_2 O27_2 1_555 1_555
P6_2 O26_2 1_555 1_555
P7_2 O18_2 1_555 1_555
O4_2 C2_2 1_555 1_555
O6_2 C5_2 1_555 1_555
O8_2 C5_2 1_555 1_555
O9_2 C8_2 1_555 1_555
O12_2 In13 1_555 1_555
O46 C8_2 1_555 1_555
O17_2 In4 1_555 1_555
O18_2 In4 1_555 1_555
O20_2 In12 1_555 1_555
N1_2 C18_2 1_555 1_555
O21_2 In8_2 1_555 1_555
O22_2 In12 1_555 1_555
O23_2 In8_2 1_555 1_555
O24_2 In4 1_555 1_555
N2_2 In13 1_555 1_555
O26_2 In8_2 1_555 1_555
N9 C21_2 1_555 1_555
O27_2 In8_2 1_555 1_555
O28_2 In13 1_555 1_555
O29_2 In16 1_555 1_555
O30_2 P3_2 1_555 1_555
O31_2 In16 1_555 1_555
N6_2 In12 1_555 1_555
O32_2 In4 1_555 1_555
O51 P7_2 1_555 1_555
O34_2 In12 1_555 1_555
N7_2 In8_2 1_555 1_555
O36_2 In20 1_555 1_555
O37_2 In13 1_555 1_555
O38_2 In6 1_555 1_555
O39_2 In20 1_555 1_555
N12 C24_2 1_555 1_555
C4_2 O20_2 1_555 1_555
C5_2 C6_2 1_555 1_555
C6_2 O17_2 1_555 1_555
O40_2 In6 1_555 1_555
C10_2 N6_2 1_555 1_555
H2_2 C10_2 1_555 1_555
C12_2 C13_2 1_555 1_555
C13_2 H4_2 1_555 1_555
C14_2 C10_2 1_555 1_555
H5_2 C14_2 1_555 1_555
C16_2 C12_2 1_555 1_555
C17_2 C29_2 1_555 1_555
C18_2 H6_2 1_555 1_555
C19_2 N1_2 1_555 1_555
H7_2 C19_2 1_555 1_555
C21_2 C13_2 1_555 1_555
H9_2 C21_2 1_555 1_555
C22_2 N9 1_555 1_555
C23_2 C12_2 1_555 1_555
H11_2 C23_2 1_555 1_555
C24_2 H12_2 1_555 1_555
C26_2 C27_2 1_555 1_555
C27_2 H13_2 1_555 1_555
C28_2 N7_2 1_555 1_555
H14_2 C28_2 1_555 1_555
C29_2 C37_2 1_555 1_555
C30_2 N6_2 1_555 1_555
H15_2 C30_2 1_555 1_555
H16_2 C31_2 1_555 1_555
C32_2 N2_2 1_555 1_555
H17_2 C32_2 1_555 1_555
C33_2 C17_2 1_555 1_555
H18_2 C33_2 1_555 1_555
C34_2 N7_2 1_555 1_555
H19_2 C34_2 1_555 1_555
C35_2 C24_2 1_555 1_555
H20_2 C35_2 1_555 1_555
C36_2 C16_2 1_555 1_555
H21_2 C36_2 1_555 1_555
C37_2 C32_2 1_555 1_555
H22_2 C37_2 1_555 1_555
C38_2 C26_2 1_555 1_555
H23_2 C38_2 1_555 1_555
C39_2 C18_2 1_555 1_555
C40_2 C26_2 1_555 1_555
C41_2 C19_2 1_555 1_555
H25_2 C41_2 1_555 1_555
C44_2 N2_2 1_555 1_555
H28_2 C44_2 1_555 1_555
C45_2 C17_2 1_555 1_555
H29_2 C45_2 1_555 1_555
C46_2 C29_2 1_555 1_555
H30_2 C46_2 1_555 1_555
C47_2 N12 1_555 1_555
C48_2 C40_2 1_555 1_555
H32_2 C48_2 1_555 1_555
H33_2 P5_2 1_555 1_555
H34_2 P2_2 1_555 1_555
H36_2 P7_2 1_555 1_555
H37_2 P1_2 1_555 1_555
H38_2 P8_2 1_555 1_555
H39_2 P3_2 1_555 1_555
H40_2 P6_2 1_555 1_555
O41 In6 1_555 1_555
O48 In6 1_555 1_555
N10 In4 1_555 1_555
P1_2 O24_2 1_555 1_555
P1_2 O28_2 1_555 1_555
P2_2 O32_2 1_555 1_555
P2_2 O37_2 1_555 1_555
P5_2 O29_2 1_555 1_555
P5_2 O38_2 1_555 1_555
P6_2 O36_2 1_555 1_555
P6_2 O40_2 1_555 1_555
P7_2 O39_2 1_555 1_555
P8_2 O21_2 1_555 1_555
P8_2 O34_2 1_555 1_555
O23_2 C6_2 1_555 1_555
C14_2 C16_2 1_555 1_555
C20_2 C33_2 1_555 1_555
C22_2 C23_2 1_555 1_555
C25_2 C39_2 1_555 1_555
C25_2 C41_2 1_555 1_555
C27_2 C34_2 1_555 1_555
C28_2 C38_2 1_555 1_555
C30_2 C36_2 1_555 1_555
C31_2 C45_2 1_555 1_555
C35_2 C40_2 1_555 1_555
C44_2 C46_2 1_555 1_555
C47_2 C48_2 1_555 1_555
O41 C7_2 1_555 1_555

#END
