
###############################################################################
#
# This file contains modified crystal structure data generated from the
# MOF subset of the Cambridge Structural Database (CSD) v543 
# hosted by the Cambridge Crystallographic Data Centre (CCDC).
#
# This work is licensed under the Creative Commons
# Attribution-NonCommercial-ShareAlike 4.0 International License.
# To view a copy of this license, visit
# http://creativecommons.org/licenses/by-nc-sa/4.0/
# or send a letter to
# Creative Commons, PO Box 1866, Mountain View, CA 94042, USA.
#
# CIF created using the CSD Python API on 29 September 2022
# The structure has been converted into the P1 space group
# The structure has a 3D framework
# The original CSD entry ZECWUC is in the triclinic crystal system
# The framework has been calculated to contain at least 10.0% void space
# The void calculation uses a probe of radius 1.32A, grid spacing 0.4
#
###############################################################################

data_ZECWUC
_chemical_formula_moiety         '(C40 H28 N8 O8 Zn2)n'
_symmetry_cell_setting           triclinic
_symmetry_space_group_name_H-M   'P 1'
_symmetry_Int_Tables_number      1
_space_group_name_Hall           'P 1'
loop_
_symmetry_equiv_pos_site_id
_symmetry_equiv_pos_as_xyz
1 x,y,z
_cell_length_a                   9.186(5)
_cell_length_b                   10.047(5)
_cell_length_c                   12.565(6)
_cell_angle_alpha                109.332(7)
_cell_angle_beta                 92.125(8)
_cell_angle_gamma                98.815(7)
_cell_volume                     1076.53
loop_
_atom_site_label
_atom_site_type_symbol
_atom_site_fract_x
_atom_site_fract_y
_atom_site_fract_z
_atom_site_U_iso_or_equiv
_atom_site_thermal_displace_type
C4 C 0.0172(3) 0.3589(2) 0.4796(2) 0.0341 Uani
H3 H 0.0284 0.2645 0.4661 0.0410 Uiso
O6 O 0.27340(19) 0.69579(18) 0.74290(14) 0.0374 Uani
O7 O 0.1536(2) 0.85351(18) 0.71161(15) 0.0424 Uani
C21 C 0.1752(3) 0.7272(3) 0.68695(18) 0.0310 Uani
C22 C 0.0843(3) 0.6098(2) 0.58974(18) 0.0289 Uani
C23 C 0.1019(3) 0.4688(3) 0.5690(2) 0.0336 Uani
H15 H 0.1702 0.4478 0.6148 0.0400 Uiso
Zn7 Zn 0.35520(3) 0.90210(2) 0.85564(2) 0.0249 Uani
N8 N 0.2031(2) 0.8716(2) 0.97793(16) 0.0328 Uani
C39 C 0.1559(4) 0.7403(3) 0.9788(3) 0.0660 Uani
H27 H 0.1782 0.6632 0.9203 0.0790 Uiso
O4 O 0.51272(19) 0.82832(18) 0.92910(15) 0.0370 Uani
C7 C 0.4467(3) 0.5384(2) 0.9115(2) 0.0342 Uani
H4 H 0.4106 0.5637 0.8521 0.0410 Uiso
O8 O 0.35737(18) 0.11479(16) 0.90426(13) 0.0317 Uani
C25 C 0.4362(2) 0.2036(2) 0.99070(19) 0.0267 Uani
C26 C 0.4676(3) 0.3576(2) 0.99601(19) 0.0279 Uani
C28 C 0.4151(3) 0.3972(2) 0.9075(2) 0.0343 Uani
H18 H 0.3582 0.3284 0.8452 0.0410 Uiso
C29 C 0.5508(3) 0.0557(3) 0.7134(2) 0.0449 Uani
H20 H 0.5187 0.1364 0.7606 0.0540 Uiso
C30 C 0.6385(3) 0.0710(3) 0.6291(2) 0.0489 Uani
H21 H 0.6648 0.1603 0.6215 0.0590 Uiso
H24 H 0.7927 0.0562 0.4535 0.0540 Uiso
O10 O 0.9392(4) 0.6616(3) 0.2399(3) 0.0930 Uani
N5 N 0.5101(2) 0.9316(2) 0.73070(17) 0.0344 Uani
N6 N 0.8223(3) 0.8620(3) 0.39798(19) 0.0449 Uani
N7 N 0.9000(3) 0.8897(3) 0.31326(19) 0.0433 Uani
H19 H 0.9141 0.9742 0.3089 0.0520 Uiso
C31 C 0.6863(3) 0.9534(3) 0.5569(2) 0.0410 Uani
C32 C 0.6458(3) 0.8231(3) 0.5745(3) 0.0520 Uani
H22 H 0.6763 0.7408 0.5282 0.0630 Uiso
C33 C 0.5598(3) 0.8178(3) 0.6613(3) 0.0501 Uani
H23 H 0.5348 0.7304 0.6723 0.0600 Uiso
C34 C 0.7733(3) 0.9680(3) 0.4640(2) 0.0447 Uani
C35 C 0.9534(3) 0.7828(3) 0.2375(3) 0.0485 Uani
H25 H 0.0620 0.0374 0.2050 0.0530 Uiso
H26 H 0.1969 0.0708 0.0637 0.0500 Uiso
C36 C 0.0368(3) 0.8217(3) 0.1478(2) 0.0382 Uani
C37 C 0.0844(3) 0.9588(3) 0.1480(2) 0.0445 Uani
C38 C 0.1660(3) 0.9776(3) 0.0622(2) 0.0420 Uani
C40 C 0.0755(5) 0.7123(3) 0.0621(3) 0.0756 Uani
H28 H 0.0476 0.6183 0.0597 0.0900 Uiso
Zn1 Zn 0.64480(3) 0.09790(2) 0.14436(2) 0.0249 Uani
O1 O 0.72660(19) 0.30421(18) 0.25710(14) 0.0374 Uani
O2 O 0.8464(2) 0.14649(18) 0.28839(15) 0.0424 Uani
O5 O 0.0608(4) 0.3384(3) 0.7601(3) 0.0930 Uani
N1 N 0.4899(2) 0.0684(2) 0.26930(17) 0.0344 Uani
N2 N 0.1777(3) 0.1380(3) 0.60202(19) 0.0449 Uani
N3 N 0.1000(3) 0.1103(3) 0.68674(19) 0.0433 Uani
H1 H 0.0859 0.0258 0.6911 0.0520 Uiso
C1 C 0.8248(3) 0.2728(3) 0.31305(18) 0.0310 Uani
C2 C 0.9157(3) 0.3902(2) 0.41026(18) 0.0289 Uani
C3 C 0.8981(3) 0.5312(3) 0.4310(2) 0.0336 Uani
H2 H 0.8298 0.5522 0.3852 0.0400 Uiso
C11 C 0.3137(3) 0.0466(3) 0.4431(2) 0.0410 Uani
C12 C 0.3542(3) 0.1769(3) 0.4255(3) 0.0520 Uani
H8 H 0.3237 0.2592 0.4718 0.0630 Uiso
C13 C 0.4402(3) 0.1822(3) 0.3387(3) 0.0501 Uani
H9 H 0.4652 0.2696 0.3277 0.0600 Uiso
C14 C 0.2267(3) 0.0320(3) 0.5360(2) 0.0447 Uani
C15 C 0.0466(3) 0.2172(3) 0.7625(3) 0.0485 Uani
C24 C 0.9828(3) 0.6411(2) 0.5204(2) 0.0341 Uani
H16 H 0.9716 0.7355 0.5339 0.0410 Uiso
O14 O 0.48728(19) 0.17168(18) 0.07090(15) 0.0370 Uani
N9 N 0.7969(2) 0.1284(2) 0.02207(16) 0.0328 Uani
O3 O 0.64263(18) 0.88521(16) 0.09574(13) 0.0317 Uani
C5 C 0.5638(2) 0.7964(2) 0.00930(19) 0.0267 Uani
C6 C 0.5324(3) 0.6424(2) 0.00399(19) 0.0279 Uani
C8 C 0.5849(3) 0.6028(2) 0.0925(2) 0.0343 Uani
H5 H 0.6418 0.6716 0.1548 0.0410 Uiso
C9 C 0.4492(3) 0.9443(3) 0.2866(2) 0.0449 Uani
H6 H 0.4813 0.8636 0.2394 0.0540 Uiso
C10 C 0.3615(3) 0.9290(3) 0.3709(2) 0.0489 Uani
H7 H 0.3352 0.8397 0.3785 0.0590 Uiso
H10 H 0.2073 0.9438 0.5465 0.0540 Uiso
C27 C 0.5533(3) 0.4616(2) 0.0885(2) 0.0342 Uani
H17 H 0.5894 0.4363 0.1479 0.0410 Uiso
C19 C 0.8441(4) 0.2597(3) 0.0212(3) 0.0660 Uani
H13 H 0.8218 0.3368 0.0797 0.0790 Uiso
C16 C 0.9632(3) 0.1783(3) 0.8522(2) 0.0382 Uani
C17 C 0.9156(3) 0.0412(3) 0.8520(2) 0.0445 Uani
C18 C 0.8340(3) 0.0224(3) 0.9378(2) 0.0420 Uani
C20 C 0.9245(5) 0.2877(3) 0.9379(3) 0.0756 Uani
H14 H 0.9524 0.3817 0.9403 0.0900 Uiso
H11 H 0.9380 0.9626 0.7950 0.0530 Uiso
H12 H 0.8031 0.9292 0.9363 0.0500 Uiso
loop_
_atom_site_aniso_label
_atom_site_aniso_U_11
_atom_site_aniso_U_22
_atom_site_aniso_U_33
_atom_site_aniso_U_23
_atom_site_aniso_U_13
_atom_site_aniso_U_12
C4 0.0417 0.0225 0.037 0.0094 -0.0009 0.0049
O6 0.0397 0.0375 0.0283 0.0078 -0.0047 -0.004
O7 0.0545 0.0257 0.0375 0.0016 0.0028 0.0001
C21 0.0334 0.0321 0.022 0.0066 0.0059 -0.0055
C22 0.0326 0.0277 0.0227 0.0069 0.0014 -0.0013
C23 0.0385 0.0304 0.0304 0.0103 -0.0063 0.0036
Zn7 0.0305 0.02048 0.02156 0.00626 0.00304 4e-05
N8 0.0398 0.0297 0.0295 0.0114 0.0101 0.003
C39 0.104 0.0333 0.061 0.0135 0.05 0.0091
O4 0.0398 0.0342 0.0423 0.0217 -0.0025 0.0045
C7 0.0456 0.0259 0.0301 0.0115 -0.0061 0.0008
O8 0.0439 0.0197 0.0281 0.0062 0.0048 -0.0008
C25 0.0273 0.0225 0.0301 0.0093 0.0078 0.0019
C26 0.0337 0.0212 0.0281 0.0094 0.0024 0.0008
C28 0.0427 0.0248 0.0295 0.0067 -0.0086 -0.0028
C29 0.06 0.038 0.0396 0.0155 0.0198 0.0089
C30 0.0655 0.0397 0.0481 0.0234 0.0218 0.0059
O10 0.141 0.0718 0.11 0.0653 0.088 0.0531
N5 0.0384 0.0367 0.0336 0.0177 0.0118 0.0082
N6 0.0449 0.0636 0.0438 0.0349 0.0232 0.0199
N7 0.0481 0.0535 0.0432 0.0314 0.0221 0.0153
C31 0.0387 0.0543 0.0389 0.0252 0.0139 0.0113
C32 0.0632 0.0479 0.0586 0.0264 0.0357 0.0245
C33 0.0608 0.0436 0.0614 0.0303 0.0326 0.0211
C34 0.0472 0.0546 0.0423 0.0276 0.0176 0.0106
C35 0.0557 0.0545 0.0542 0.036 0.0286 0.0213
C36 0.0425 0.0428 0.0386 0.0231 0.0165 0.0113
C37 0.0518 0.0391 0.041 0.0106 0.0209 0.0062
C38 0.0498 0.0338 0.0409 0.0123 0.0182 0.0004
C40 0.126 0.0345 0.074 0.0243 0.061 0.0114
Zn1 0.0305 0.02048 0.02156 0.00626 0.00304 4e-05
O1 0.0397 0.0375 0.0283 0.0078 -0.0047 -0.004
O2 0.0545 0.0257 0.0375 0.0016 0.0028 0.0001
O5 0.141 0.0718 0.11 0.0653 0.088 0.0531
N1 0.0384 0.0367 0.0336 0.0177 0.0118 0.0082
N2 0.0449 0.0636 0.0438 0.0349 0.0232 0.0199
N3 0.0481 0.0535 0.0432 0.0314 0.0221 0.0153
C1 0.0334 0.0321 0.022 0.0066 0.0059 -0.0055
C2 0.0326 0.0277 0.0227 0.0069 0.0014 -0.0013
C3 0.0385 0.0304 0.0304 0.0103 -0.0063 0.0036
C11 0.0387 0.0543 0.0389 0.0252 0.0139 0.0113
C12 0.0632 0.0479 0.0586 0.0264 0.0357 0.0245
C13 0.0608 0.0436 0.0614 0.0303 0.0326 0.0211
C14 0.0472 0.0546 0.0423 0.0276 0.0176 0.0106
C15 0.0557 0.0545 0.0542 0.036 0.0286 0.0213
C24 0.0417 0.0225 0.037 0.0094 -0.0009 0.0049
O14 0.0398 0.0342 0.0423 0.0217 -0.0025 0.0045
N9 0.0398 0.0297 0.0295 0.0114 0.0101 0.003
O3 0.0439 0.0197 0.0281 0.0062 0.0048 -0.0008
C5 0.0273 0.0225 0.0301 0.0093 0.0078 0.0019
C6 0.0337 0.0212 0.0281 0.0094 0.0024 0.0008
C8 0.0427 0.0248 0.0295 0.0067 -0.0086 -0.0028
C9 0.06 0.038 0.0396 0.0155 0.0198 0.0089
C10 0.0655 0.0397 0.0481 0.0234 0.0218 0.0059
C27 0.0456 0.0259 0.0301 0.0115 -0.0061 0.0008
C19 0.104 0.0333 0.061 0.0135 0.05 0.0091
C16 0.0425 0.0428 0.0386 0.0231 0.0165 0.0113
C17 0.0518 0.0391 0.041 0.0106 0.0209 0.0062
C18 0.0498 0.0338 0.0409 0.0123 0.0182 0.0004
C20 0.126 0.0345 0.074 0.0243 0.061 0.0114
loop_
_geom_bond_atom_site_label_1
_geom_bond_atom_site_label_2
_geom_bond_site_symmetry_1
_geom_bond_site_symmetry_2
H3 C4 1_555 1_555
O6 C21 1_555 1_555
O7 C21 1_555 1_555
C21 C22 1_555 1_555
C22 C23 1_555 1_555
C23 C4 1_555 1_555
H15 C23 1_555 1_555
Zn7 O6 1_555 1_555
O7 Zn7 1_555 1_555
C39 N8 1_555 1_555
H27 C39 1_555 1_555
Zn7 N8 1_555 1_555
H4 C7 1_555 1_555
O8 C25 1_555 1_555
C25 C26 1_555 1_555
C28 C7 1_555 1_555
H18 C28 1_555 1_555
H20 C29 1_555 1_555
C30 C29 1_555 1_555
H21 C30 1_555 1_555
Zn7 O4 1_555 1_555
C26 C28 1_555 1_555
O10 C35 1_555 1_555
N5 Zn7 1_555 1_555
N6 N7 1_555 1_555
N7 H19 1_555 1_555
C32 C31 1_555 1_555
H22 C32 1_555 1_555
C33 N5 1_555 1_555
H23 C33 1_555 1_555
C34 N6 1_555 1_555
C35 N7 1_555 1_555
C31 C34 1_555 1_555
C32 C33 1_555 1_555
C37 C36 1_555 1_555
C38 C37 1_555 1_555
C40 C36 1_555 1_555
H28 C40 1_555 1_555
Zn1 O1 1_555 1_555
O1 C1 1_555 1_555
O2 Zn1 1_555 1_555
O5 C15 1_555 1_555
N1 Zn1 1_555 1_555
N2 N3 1_555 1_555
N3 H1 1_555 1_555
C1 O2 1_555 1_555
C2 C1 1_555 1_555
C3 C2 1_555 1_555
H2 C3 1_555 1_555
C12 C11 1_555 1_555
H8 C12 1_555 1_555
C13 N1 1_555 1_555
H9 C13 1_555 1_555
C14 N2 1_555 1_555
C15 N3 1_555 1_555
C24 C3 1_555 1_555
H16 C24 1_555 1_555
O14 Zn1 1_555 1_555
N9 Zn1 1_555 1_555
C11 C14 1_555 1_555
C12 C13 1_555 1_555
C5 O3 1_555 1_555
C6 C5 1_555 1_555
C8 C6 1_555 1_555
H5 C8 1_555 1_555
H6 C9 1_555 1_555
C10 C9 1_555 1_555
H7 C10 1_555 1_555
C27 C8 1_555 1_555
H17 C27 1_555 1_555
C19 N9 1_555 1_555
H13 C19 1_555 1_555
C17 C16 1_555 1_555
C18 C17 1_555 1_555
C20 C16 1_555 1_555
H14 C20 1_555 1_555

#END
