
###############################################################################
#
# This file contains modified crystal structure data generated from the
# MOF subset of the Cambridge Structural Database (CSD) v543 
# hosted by the Cambridge Crystallographic Data Centre (CCDC).
#
# This work is licensed under the Creative Commons
# Attribution-NonCommercial-ShareAlike 4.0 International License.
# To view a copy of this license, visit
# http://creativecommons.org/licenses/by-nc-sa/4.0/
# or send a letter to
# Creative Commons, PO Box 1866, Mountain View, CA 94042, USA.
#
# CIF created using the CSD Python API on 29 September 2022
# The structure has been converted into the P1 space group
# The structure has a 3D framework
# The original CSD entry ZECXAJ is in the triclinic crystal system
# The framework has been calculated to contain at least 10.0% void space
# The void calculation uses a probe of radius 1.32A, grid spacing 0.4
#
###############################################################################

data_ZECXAJ
_chemical_formula_moiety         '(C40 H28 Cd2 N8 O8)n'
_symmetry_cell_setting           triclinic
_symmetry_space_group_name_H-M   'P 1'
_symmetry_Int_Tables_number      1
_space_group_name_Hall           'P 1'
loop_
_symmetry_equiv_pos_site_id
_symmetry_equiv_pos_as_xyz
1 x,y,z
_cell_length_a                   9.2037(16)
_cell_length_b                   10.2166(18)
_cell_length_c                   12.478(2)
_cell_angle_alpha                108.987(3)
_cell_angle_beta                 94.211(3)
_cell_angle_gamma                95.423(3)
_cell_volume                     1097.73
loop_
_atom_site_label
_atom_site_type_symbol
_atom_site_fract_x
_atom_site_fract_y
_atom_site_fract_z
_atom_site_U_iso_or_equiv
_atom_site_thermal_displace_type
C3 C 0.0148(6) 0.3615(5) 0.4841(5) 0.0372 Uani
H2 H 0.0250 0.2685 0.4734 0.0450 Uiso
O6 O 0.1552(4) 0.8411(4) 0.7063(3) 0.0399 Uani
O7 O 0.2817(4) 0.6844(4) 0.7386(3) 0.0408 Uani
C21 C 0.1802(6) 0.7171(5) 0.6825(4) 0.0331 Uani
C22 C 0.0879(6) 0.6047(5) 0.5874(4) 0.0307 Uani
C24 C 0.1014(6) 0.4664(5) 0.5709(4) 0.0375 Uani
H16 H 0.1694 0.4434 0.6187 0.0450 Uiso
Cd7 Cd 0.35191(4) 0.91507(4) 0.86181(3) 0.0260 Uani
N6 N 0.1948(5) 0.8807(5) 0.9901(4) 0.0391 Uani
C39 C 0.1462(9) 0.7527(7) 0.9861(6) 0.0676 Uani
H27 H 0.1656 0.6776 0.9252 0.0810 Uiso
O4 O 0.5303(4) 0.8408(4) 0.9573(4) 0.0554 Uani
C13 C 0.4518(6) 0.5527(5) 0.9168(5) 0.0407 Uani
H8 H 0.4192 0.5875 0.8604 0.0490 Uiso
O8 O 0.3184(4) 0.1415(4) 0.8933(3) 0.0420 Uani
C25 C 0.4557(6) 0.3623(5) 0.9898(4) 0.0313 Uani
C26 C 0.4110(6) 0.2109(5) 0.9753(5) 0.0325 Uani
C28 C 0.4069(6) 0.4154(5) 0.9065(5) 0.0417 Uani
H18 H 0.3438 0.3587 0.8435 0.0500 Uiso
C32 C 0.6377(7) 0.0824(6) 0.6351(5) 0.0506 Uani
H22 H 0.6612 0.1700 0.6288 0.0610 Uiso
H24 H 0.7917 0.0687 0.4619 0.0540 Uiso
C36 C 0.5529(7) 0.0678(6) 0.7177(5) 0.0486 Uani
H25 H 0.5187 0.1467 0.7652 0.0590 Uiso
N5 N 0.5171(5) 0.9457(5) 0.7333(4) 0.0407 Uani
N7 N 0.9045(5) 0.9053(5) 0.3251(4) 0.0426 Uani
H19 H 0.9208 0.9887 0.3231 0.0510 Uiso
N8 N 0.8269(5) 0.8796(5) 0.4071(4) 0.0438 Uani
C30 C 0.6878(6) 0.9680(6) 0.5620(5) 0.0417 Uani
C31 C 0.5674(7) 0.8355(7) 0.6630(6) 0.0534 Uani
H21 H 0.5439 0.7494 0.6720 0.0640 Uiso
C35 C 0.7748(6) 0.9823(7) 0.4716(5) 0.0449 Uani
C37 C 0.6521(7) 0.8409(7) 0.5778(6) 0.0544 Uani
H26 H 0.6851 0.7605 0.5314 0.0660 Uiso
O10 O 0.9434(7) 0.6814(6) 0.2492(5) 0.0943 Uani
C38 C 0.9551(7) 0.7994(7) 0.2477(5) 0.0491 Uani
H20 H 0.1936 0.0762 0.0809 0.0520 Uiso
H23 H 0.0606 0.0447 0.2199 0.0510 Uiso
C29 C 0.1613(7) 0.9856(6) 0.0771(5) 0.0434 Uani
C33 C 0.0353(6) 0.8343(6) 0.1578(5) 0.0423 Uani
C34 C 0.0822(6) 0.9680(6) 0.1614(5) 0.0427 Uani
C40 C 0.0675(9) 0.7260(7) 0.0688(6) 0.0721 Uani
H28 H 0.0370 0.6345 0.0637 0.0860 Uiso
Cd1 Cd 0.64809(4) 0.08493(4) 0.13819(3) 0.0260 Uani
O1 O 0.8448(4) 0.1589(4) 0.2937(3) 0.0399 Uani
O2 O 0.7183(4) 0.3156(4) 0.2614(3) 0.0408 Uani
C1 C 0.8198(6) 0.2829(5) 0.3175(4) 0.0331 Uani
C2 C 0.9121(6) 0.3953(5) 0.4126(4) 0.0307 Uani
N1 N 0.4829(5) 0.0543(5) 0.2667(4) 0.0407 Uani
N3 N 0.0955(5) 0.0947(5) 0.6749(4) 0.0426 Uani
H1 H 0.0792 0.0113 0.6769 0.0510 Uiso
N4 N 0.1731(5) 0.1204(5) 0.5929(4) 0.0438 Uani
C5 C 0.3122(6) 0.0320(6) 0.4380(5) 0.0417 Uani
C6 C 0.4326(7) 0.1645(7) 0.3370(6) 0.0534 Uani
H4 H 0.4561 0.2506 0.3280 0.0640 Uiso
C12 C 0.8986(6) 0.5336(5) 0.4291(4) 0.0375 Uani
H7 H 0.8306 0.5566 0.3813 0.0450 Uiso
C14 C 0.2252(6) 0.0177(7) 0.5284(5) 0.0449 Uani
C17 C 0.3479(7) 0.1591(7) 0.4222(6) 0.0544 Uani
H12 H 0.3149 0.2395 0.4686 0.0660 Uiso
O5 O 0.0566(7) 0.3186(6) 0.7508(5) 0.0943 Uani
C18 C 0.0449(7) 0.2006(7) 0.7523(5) 0.0491 Uani
C23 C 0.9852(6) 0.6385(5) 0.5159(5) 0.0372 Uani
H15 H 0.9750 0.7315 0.5266 0.0450 Uiso
N9 N 0.8052(5) 0.1193(5) 0.0099(4) 0.0391 Uani
O14 O 0.4697(4) 0.1592(4) 0.0427(4) 0.0554 Uani
O3 O 0.6816(4) 0.8585(4) 0.1067(3) 0.0420 Uani
C7 C 0.5443(6) 0.6377(5) 0.0102(4) 0.0313 Uani
C8 C 0.3623(7) 0.9176(6) 0.3649(5) 0.0506 Uani
H5 H 0.3388 0.8300 0.3712 0.0610 Uiso
C11 C 0.5890(6) 0.7891(5) 0.0247(5) 0.0325 Uani
H9 H 0.2083 0.9313 0.5381 0.0540 Uiso
C15 C 0.4471(7) 0.9322(6) 0.2823(5) 0.0486 Uani
H10 H 0.4813 0.8533 0.2348 0.0590 Uiso
C16 C 0.5931(6) 0.5846(5) 0.0935(5) 0.0417 Uani
H11 H 0.6562 0.6413 0.1565 0.0500 Uiso
C27 C 0.5482(6) 0.4473(5) 0.0832(5) 0.0407 Uani
H17 H 0.5808 0.4125 0.1396 0.0490 Uiso
C19 C 0.8538(9) 0.2473(7) 0.0139(6) 0.0676 Uani
H13 H 0.8344 0.3224 0.0748 0.0810 Uiso
C4 C 0.8387(7) 0.0144(6) 0.9229(5) 0.0434 Uani
C9 C 0.9647(6) 0.1657(6) 0.8422(5) 0.0423 Uani
C10 C 0.9178(6) 0.0320(6) 0.8386(5) 0.0427 Uani
C20 C 0.9325(9) 0.2740(7) 0.9312(6) 0.0721 Uani
H14 H 0.9630 0.3655 0.9363 0.0860 Uiso
H3 H 0.8064 0.9238 0.9191 0.0520 Uiso
H6 H 0.9394 0.9553 0.7801 0.0510 Uiso
loop_
_atom_site_aniso_label
_atom_site_aniso_U_11
_atom_site_aniso_U_22
_atom_site_aniso_U_33
_atom_site_aniso_U_23
_atom_site_aniso_U_13
_atom_site_aniso_U_12
C3 0.046 0.028 0.038 0.013 -0.001 0.004
O6 0.051 0.0246 0.035 0.0007 -0.0019 -0.0008
O7 0.046 0.035 0.035 0.0101 -0.0119 -0.0084
C21 0.041 0.031 0.027 0.012 0.002 -0.004
C22 0.039 0.026 0.023 0.005 0.002 -0.004
C24 0.045 0.033 0.032 0.013 -0.012 -0.002
Cd7 0.0316 0.02338 0.02169 0.00759 0.00308 -0.0037
N6 0.042 0.038 0.038 0.014 0.01 -0.001
C39 0.107 0.044 0.05 0.007 0.046 0.003
O4 0.044 0.042 0.09 0.043 -0.013 -0.0069
C13 0.052 0.033 0.04 0.021 -0.008 -0.002
O8 0.055 0.0267 0.038 0.0073 -0.0016 -0.008
C25 0.038 0.021 0.034 0.009 0.002 0.001
C26 0.033 0.025 0.043 0.014 0.013 0.005
C28 0.052 0.03 0.039 0.012 -0.008 -0.006
C32 0.064 0.046 0.052 0.028 0.02 0.005
C36 0.06 0.044 0.044 0.015 0.02 0.006
N5 0.046 0.043 0.036 0.015 0.014 0.006
N7 0.049 0.051 0.04 0.029 0.015 0.009
N8 0.046 0.062 0.038 0.032 0.019 0.012
C30 0.047 0.049 0.034 0.019 0.011 0.006
C31 0.065 0.05 0.057 0.03 0.023 0.009
C35 0.046 0.06 0.037 0.025 0.013 0.009
C37 0.063 0.051 0.058 0.023 0.028 0.016
O10 0.139 0.071 0.112 0.062 0.081 0.04
C38 0.056 0.055 0.051 0.032 0.022 0.015
C29 0.053 0.038 0.041 0.016 0.013 -0.001
C33 0.046 0.047 0.042 0.023 0.014 0.009
C34 0.048 0.046 0.036 0.013 0.015 0.01
C40 0.111 0.034 0.075 0.017 0.048 0.003
Cd1 0.0316 0.02338 0.02169 0.00759 0.00308 -0.0037
O1 0.051 0.0246 0.035 0.0007 -0.0019 -0.0008
O2 0.046 0.035 0.035 0.0101 -0.0119 -0.0084
C1 0.041 0.031 0.027 0.012 0.002 -0.004
C2 0.039 0.026 0.023 0.005 0.002 -0.004
N1 0.046 0.043 0.036 0.015 0.014 0.006
N3 0.049 0.051 0.04 0.029 0.015 0.009
N4 0.046 0.062 0.038 0.032 0.019 0.012
C5 0.047 0.049 0.034 0.019 0.011 0.006
C6 0.065 0.05 0.057 0.03 0.023 0.009
C12 0.045 0.033 0.032 0.013 -0.012 -0.002
C14 0.046 0.06 0.037 0.025 0.013 0.009
C17 0.063 0.051 0.058 0.023 0.028 0.016
O5 0.139 0.071 0.112 0.062 0.081 0.04
C18 0.056 0.055 0.051 0.032 0.022 0.015
C23 0.046 0.028 0.038 0.013 -0.001 0.004
N9 0.042 0.038 0.038 0.014 0.01 -0.001
O14 0.044 0.042 0.09 0.043 -0.013 -0.0069
O3 0.055 0.0267 0.038 0.0073 -0.0016 -0.008
C7 0.038 0.021 0.034 0.009 0.002 0.001
C8 0.064 0.046 0.052 0.028 0.02 0.005
C11 0.033 0.025 0.043 0.014 0.013 0.005
C15 0.06 0.044 0.044 0.015 0.02 0.006
C16 0.052 0.03 0.039 0.012 -0.008 -0.006
C27 0.052 0.033 0.04 0.021 -0.008 -0.002
C19 0.107 0.044 0.05 0.007 0.046 0.003
C4 0.053 0.038 0.041 0.016 0.013 -0.001
C9 0.046 0.047 0.042 0.023 0.014 0.009
C10 0.048 0.046 0.036 0.013 0.015 0.01
C20 0.111 0.034 0.075 0.017 0.048 0.003
loop_
_geom_bond_atom_site_label_1
_geom_bond_atom_site_label_2
_geom_bond_site_symmetry_1
_geom_bond_site_symmetry_2
H2 C3 1_555 1_555
O6 C21 1_555 1_555
O7 C21 1_555 1_555
C21 C22 1_555 1_555
C24 C3 1_555 1_555
H16 C24 1_555 1_555
Cd7 O6 1_555 1_555
O7 Cd7 1_555 1_555
C22 C24 1_555 1_555
C39 N6 1_555 1_555
H27 C39 1_555 1_555
Cd7 N6 1_555 1_555
H8 C13 1_555 1_555
O8 C26 1_555 1_555
C25 C26 1_555 1_555
C28 C13 1_555 1_555
H18 C28 1_555 1_555
C32 H22 1_555 1_555
H25 C36 1_555 1_555
Cd7 O4 1_555 1_555
C25 C28 1_555 1_555
C32 C36 1_555 1_555
N5 Cd7 1_555 1_555
N7 H19 1_555 1_555
N8 N7 1_555 1_555
C31 N5 1_555 1_555
H21 C31 1_555 1_555
C35 N8 1_555 1_555
C37 C30 1_555 1_555
H26 C37 1_555 1_555
O10 C38 1_555 1_555
C38 N7 1_555 1_555
C30 C35 1_555 1_555
C31 C37 1_555 1_555
C33 C34 1_555 1_555
C34 C29 1_555 1_555
C40 C33 1_555 1_555
H28 C40 1_555 1_555
Cd1 O1 1_555 1_555
O1 C1 1_555 1_555
O2 Cd1 1_555 1_555
C1 O2 1_555 1_555
C2 C1 1_555 1_555
N1 Cd1 1_555 1_555
N3 H1 1_555 1_555
N4 N3 1_555 1_555
C6 N1 1_555 1_555
H4 C6 1_555 1_555
C12 C2 1_555 1_555
H7 C12 1_555 1_555
C14 N4 1_555 1_555
C17 C5 1_555 1_555
H12 C17 1_555 1_555
O5 C18 1_555 1_555
C18 N3 1_555 1_555
C23 C12 1_555 1_555
H15 C23 1_555 1_555
N9 Cd1 1_555 1_555
O14 Cd1 1_555 1_555
C5 C14 1_555 1_555
C6 C17 1_555 1_555
C7 C11 1_555 1_555
C8 H5 1_555 1_555
C11 O3 1_555 1_555
H10 C15 1_555 1_555
C16 C7 1_555 1_555
H11 C16 1_555 1_555
C27 C16 1_555 1_555
H17 C27 1_555 1_555
C8 C15 1_555 1_555
C19 N9 1_555 1_555
H13 C19 1_555 1_555
C9 C10 1_555 1_555
C10 C4 1_555 1_555
C20 C9 1_555 1_555
H14 C20 1_555 1_555

#END
