
###############################################################################
#
# This file contains modified crystal structure data generated from the
# MOF subset of the Cambridge Structural Database (CSD) v543 
# hosted by the Cambridge Crystallographic Data Centre (CCDC).
#
# This work is licensed under the Creative Commons
# Attribution-NonCommercial-ShareAlike 4.0 International License.
# To view a copy of this license, visit
# http://creativecommons.org/licenses/by-nc-sa/4.0/
# or send a letter to
# Creative Commons, PO Box 1866, Mountain View, CA 94042, USA.
#
# CIF created using the CSD Python API on 29 September 2022
# The structure has been converted into the P1 space group
# The structure has a 3D framework
# The original CSD entry ZEDGAU is in the hexagonal crystal system
# The original CSD entry ZEDGAU is in a Sohncke space group
# The framework has been calculated to contain at least 10.0% void space
# The void calculation uses a probe of radius 1.32A, grid spacing 0.4
# The framework is charged, counterions have been retained in the structure
# H atom positions have been added when not included in the experimental data
#
###############################################################################

data_ZEDGAU
_chemical_formula_moiety         '(C72 H96 Cl2 Cu12 N12 O38 S12 Sr2 2-)n'
_symmetry_cell_setting           triclinic
_symmetry_space_group_name_H-M   'P 1'
_symmetry_Int_Tables_number      1
_space_group_name_Hall           'P 1'
loop_
_symmetry_equiv_pos_site_id
_symmetry_equiv_pos_as_xyz
1 x,y,z
_cell_length_a                   17.594(3)
_cell_length_b                   17.594(3)
_cell_length_c                   13.706(3)
_cell_angle_alpha                90
_cell_angle_beta                 90
_cell_angle_gamma                120
_cell_volume                     3674.27
loop_
_atom_site_label
_atom_site_type_symbol
_atom_site_fract_x
_atom_site_fract_y
_atom_site_fract_z
Cl1 Cl 0.333333 0.666667 0.7518(8)
Cl1_2 Cl 0.666667 0.333333 0.2518(8)
O3 O 0.2854(13) 0.8025(8) 0.4212(10)
O4 O 0.0129(8) 0.4398(10) 0.3678(10)
O6 O 0.2308(8) 0.6748(8) 0.3435(9)
N1 N 0.0962(10) 0.5965(10) 0.4564(10)
C1 C 0.1550(12) 0.6831(12) 0.4853(13)
H1 H 0.124129 0.716418 0.488545
C2 C 0.2340(14) 0.7293(13) 0.4142(16)
C6 C 0.0233(12) 0.5394(13) 0.4990(13)
S1 S 0.279(5) 0.769(3) 0.753(4)
C7 C 0.197(2) 0.6870(18) 0.585(2)
H3 H 0.151767 0.649471 0.630215
H4 H 0.236994 0.664056 0.577331
C8 C 0.248(2) 0.7787(17) 0.627(2)
C9 C 0.377(2) 0.875(2) 0.788(3)
H7 H 0.004415 0.315838 0.545489
Cu8 Cu 0.13063(14) 0.55323(14) 0.3441(2)
Cu12 Cu 0.42260(20) 0.86937(14) 0.3441(2)
Sr4 Sr 0.333333 0.666667 0.2160(3)
H25 H 0.306687 0.818276 0.583595
H26 H 0.207287 0.809215 0.627212
H27 H 0.361202 0.927373 0.783701
H28 H 0.396228 0.870423 0.862325
H29 H 0.430899 0.889212 0.738448
H38 H 0.0351218 0.388563 0.823265
Cu1 Cu 0.86937(14) 0.44677(14) 0.8441(2)
Cu2 Cu 0.87188(14) 0.44201(14) 0.5947(2)
Sr1 Sr 0.666667 0.333333 0.7160(3)
O1 O 0.8383(5) 0.4695(5) 0.7166(10)
O2 O 0.7025(11) 0.1920(9) 0.5090(12)
O5 O 0.9869(9) 0.5512(9) 0.5699(10)
O7 O 0.7667(8) 0.3204(7) 0.5908(11)
N2 N 0.9056(12) 0.3960(11) 0.4930(12)
C3 C 0.8496(15) 0.3042(12) 0.463(2)
H2 H 0.832635 0.301593 0.394559
C4 C 0.7728(13) 0.2750(14) 0.5256(15)
C5 C 0.9783(12) 0.4532(13) 0.4466(13)
S2 S 0.9367(19) 0.306(3) 0.6895(12)
C10 C 0.8913(18) 0.2488(18) 0.478(3)
H5 H 0.845360 0.187780 0.482171
H6 H 0.927157 0.254914 0.421855
C11 C 0.947(3) 0.271(3) 0.567(2)
H8 H 0.951916 0.219044 0.578427
C12 C 0.968(5) 0.334(5) 0.819(3)
Cu3 Cu 0.55323(14) 0.42260(20) 0.8441(2)
Cu4 Cu 0.55799(14) 0.42987(20) 0.5947(2)
O8 O 0.5305(5) 0.3688(7) 0.7166(10)
O9 O 0.8080(9) 0.5105(14) 0.5090(12)
O10 O 0.1975(8) 0.4829(15) 0.4212(10)
O11 O 0.5602(10) 0.5731(13) 0.3678(10)
O12 O 0.4488(9) 0.4357(13) 0.5699(10)
O13 O 0.3252(8) 0.5560(11) 0.3435(9)
O14 O 0.6796(7) 0.4463(11) 0.5908(11)
N3 N 0.4035(10) 0.4997(14) 0.4564(10)
N4 N 0.6040(11) 0.5096(16) 0.4930(12)
C13 C 0.3169(12) 0.4719(17) 0.4853(13)
H9 H 0.283582 0.407711 0.488545
C14 C 0.2707(13) 0.5047(19) 0.4142(16)
C15 C 0.6958(12) 0.5454(19) 0.463(2)
H10 H 0.698407 0.531042 0.394559
C16 C 0.7250(14) 0.4978(19) 0.5256(15)
C17 C 0.5468(13) 0.5251(18) 0.4466(13)
C18 C 0.4606(13) 0.4839(18) 0.4990(13)
S3 S 0.231(3) 0.510(6) 0.753(4)
S4 S 0.694(3) 0.6307(36) 0.6895(12)
C19 C 0.3130(18) 0.5100(27) 0.585(2)
H11 H 0.350529 0.502296 0.630215
H12 H 0.335944 0.572938 0.577331
C20 C 0.2213(17) 0.4693(26) 0.627(2)
C21 C 0.125(2) 0.502(3) 0.788(3)
C22 C 0.7512(18) 0.6425(25) 0.478(3)
H13 H 0.812220 0.657580 0.482171
H14 H 0.745086 0.672243 0.421855
C23 C 0.729(3) 0.676(4) 0.567(2)
H15 H 0.684162 0.688577 0.545489
H16 H 0.780956 0.732872 0.578427
C24 C 0.666(5) 0.634(7) 0.819(3)
Cu5 Cu 0.57740(20) 0.13063(14) 0.8441(2)
Cu6 Cu 0.57013(20) 0.12812(14) 0.5947(2)
O15 O 0.6312(7) 0.1617(5) 0.7166(10)
O16 O 0.4895(14) 0.2975(11) 0.5090(12)
O19 O 0.5643(13) 0.0131(9) 0.5699(10)
O21 O 0.5537(11) 0.2333(8) 0.5908(11)
N6 N 0.4904(16) 0.0944(12) 0.4930(12)
C27 C 0.4546(19) 0.1504(15) 0.463(2)
H18 H 0.468958 0.167365 0.394559
C28 C 0.5022(19) 0.2272(13) 0.5256(15)
C29 C 0.4749(18) 0.0217(12) 0.4466(13)
S6 S 0.3693(36) 0.0633(19) 0.6895(12)
C34 C 0.3575(25) 0.1087(18) 0.478(3)
H21 H 0.342420 0.154640 0.482171
H22 H 0.327757 0.072843 0.421855
C35 C 0.324(4) 0.053(3) 0.567(2)
H24 H 0.267128 0.048084 0.578427
C36 C 0.366(7) 0.032(5) 0.819(3)
Cu10 Cu 0.44677(14) 0.57740(20) 0.3441(2)
O22 O 0.7146(13) 0.1975(8) 0.9212(10)
O23 O 0.8025(8) 0.5171(15) 0.9212(10)
O24 O 0.4829(15) 0.2854(13) 0.9212(10)
O25 O 0.9871(8) 0.5602(10) 0.8678(10)
O26 O 0.4398(10) 0.4269(13) 0.8678(10)
O27 O 0.5731(13) 0.0129(8) 0.8678(10)
O28 O 0.7692(8) 0.3252(8) 0.8435(9)
O29 O 0.6748(8) 0.4440(11) 0.8435(9)
O30 O 0.5560(11) 0.2308(8) 0.8435(9)
N7 N 0.9038(10) 0.4035(10) 0.9564(10)
N8 N 0.5965(10) 0.5003(14) 0.9564(10)
N9 N 0.4997(14) 0.0962(10) 0.9564(10)
H30 H 0.0726269 0.433829 0.783701
H31 H 0.129577 0.525805 0.862325
H32 H 0.110788 0.541686 0.738448
H33 H 0.181724 0.488411 0.583595
H34 H 0.190785 0.398072 0.627212
H35 H 0.611437 0.646559 0.823265
H36 H 0.64738 0.571276 0.853398
H37 H 0.722706 0.686107 0.856539
H39 H 0.923896 0.35262 0.853398
H40 H 0.9634 0.277294 0.856539
H45 H 0.428724 0.0761042 0.853398
H46 H 0.313893 0.0365997 0.856539
O17 O 0.5171(15) 0.7146(13) 0.4212(10)
O18 O 0.4269(13) 0.9871(8) 0.3678(10)
O20 O 0.4440(11) 0.7692(8) 0.3435(9)
N5 N 0.5003(14) 0.9038(10) 0.4564(10)
C25 C 0.5281(17) 0.8450(12) 0.4853(13)
H17 H 0.592289 0.875871 0.488545
C26 C 0.4953(19) 0.7660(14) 0.4142(16)
C30 C 0.5161(18) 0.9767(12) 0.4990(13)
S5 S 0.490(6) 0.721(5) 0.753(4)
C31 C 0.4900(27) 0.803(2) 0.585(2)
H19 H 0.497704 0.848233 0.630215
H20 H 0.427062 0.763006 0.577331
C32 C 0.5307(26) 0.752(2) 0.627(2)
C33 C 0.498(3) 0.623(2) 0.788(3)
H23 H 0.311423 0.995585 0.545489
H41 H 0.566171 0.638798 0.783701
H42 H 0.474195 0.603772 0.862325
H43 H 0.458314 0.569101 0.738448
H44 H 0.353441 0.964878 0.823265
H47 H 0.511589 0.693313 0.583595
H48 H 0.601928 0.792713 0.627212
C25_2 C 0.4719(17) 0.1550(12) 0.9853(13)
H17_2 H 0.407711 0.124129 0.988545
C26_2 C 0.5047(19) 0.2340(14) 0.9142(16)
C30_2 C 0.4839(18) 0.0233(12) 0.9990(13)
Cu2_2 Cu 0.12812(14) 0.55799(14) 0.0947(2)
O1_2 O 0.1617(5) 0.5305(5) 0.2166(10)
O2_2 O 0.2975(11) 0.8080(9) 0.0090(12)
O5_2 O 0.0131(9) 0.4488(9) 0.0699(10)
O7_2 O 0.2333(8) 0.6796(7) 0.0908(11)
C4_2 C 0.2272(13) 0.7250(14) 0.0256(15)
S2_2 S 0.0633(19) 0.694(3) 0.1895(12)
C11_2 C 0.053(3) 0.729(3) 0.067(2)
H8_2 H 0.048084 0.780956 0.078427
C12_2 C 0.032(5) 0.666(5) 0.319(3)
Cu4_2 Cu 0.44201(14) 0.57013(20) 0.0947(2)
O8_2 O 0.4695(5) 0.6312(7) 0.2166(10)
O9_2 O 0.1920(9) 0.4895(14) 0.0090(12)
O12_2 O 0.5512(9) 0.5643(13) 0.0699(10)
O14_2 O 0.3204(7) 0.5537(11) 0.0908(11)
C16_2 C 0.2750(14) 0.5022(19) 0.0256(15)
S3_2 S 0.769(3) 0.490(6) 0.253(4)
S4_2 S 0.306(3) 0.3693(36) 0.1895(12)
C19_2 C 0.6870(18) 0.4900(27) 0.085(2)
H11_2 H 0.649471 0.497704 0.130215
H12_2 H 0.664056 0.427062 0.077331
C20_2 C 0.7787(17) 0.5307(26) 0.127(2)
C21_2 C 0.875(2) 0.498(3) 0.288(3)
C23_2 C 0.271(3) 0.324(4) 0.067(2)
H15_2 H 0.315838 0.311423 0.045489
H16_2 H 0.219044 0.267128 0.078427
C24_2 C 0.334(5) 0.366(7) 0.319(3)
Cu6_2 Cu 0.42987(20) 0.87188(14) 0.0947(2)
O15_2 O 0.3688(7) 0.8383(5) 0.2166(10)
O16_2 O 0.5105(14) 0.7025(11) 0.0090(12)
O19_2 O 0.4357(13) 0.9869(9) 0.0699(10)
O21_2 O 0.4463(11) 0.7667(8) 0.0908(11)
C28_2 C 0.4978(19) 0.7728(13) 0.0256(15)
S6_2 S 0.6307(36) 0.9367(19) 0.1895(12)
C35_2 C 0.676(4) 0.947(3) 0.067(2)
H24_2 H 0.732872 0.951916 0.078427
C36_2 C 0.634(7) 0.968(5) 0.319(3)
H30_2 H 0.927373 0.566171 0.283701
H31_2 H 0.870423 0.474195 0.362325
H32_2 H 0.889212 0.458314 0.238448
H33_2 H 0.818276 0.511589 0.083595
H34_2 H 0.809215 0.601928 0.127212
H35_2 H 0.388563 0.353441 0.323265
H36_2 H 0.35262 0.428724 0.353398
H37_2 H 0.277294 0.313893 0.356539
H39_2 H 0.0761042 0.64738 0.353398
H40_2 H 0.0365997 0.722706 0.356539
H45_2 H 0.571276 0.923896 0.353398
H46_2 H 0.686107 0.9634 0.356539
N2_2 N 0.0944(12) 0.6040(11) 0.9930(12)
C3_2 C 0.1504(15) 0.6958(12) 0.963(2)
H2_2 H 0.167365 0.698407 0.894559
C5_2 C 0.0217(12) 0.5468(13) 0.9466(13)
C10_2 C 0.1087(18) 0.7512(18) 0.978(3)
H5_2 H 0.154640 0.812220 0.982171
H6_2 H 0.072843 0.745086 0.921855
N4_2 N 0.3960(11) 0.4904(16) 0.9930(12)
C13_2 C 0.6831(12) 0.5281(17) 0.9853(13)
H9_2 H 0.716418 0.592289 0.988545
C14_2 C 0.7293(13) 0.4953(19) 0.9142(16)
C15_2 C 0.3042(12) 0.4546(19) 0.963(2)
H10_2 H 0.301593 0.468958 0.894559
C17_2 C 0.4532(13) 0.4749(18) 0.9466(13)
C18_2 C 0.5394(13) 0.5161(18) 0.9990(13)
C22_2 C 0.2488(18) 0.3575(25) 0.978(3)
H13_2 H 0.187780 0.342420 0.982171
H14_2 H 0.254914 0.327757 0.921855
N6_2 N 0.5096(16) 0.9056(12) 0.9930(12)
C27_2 C 0.5454(19) 0.8496(15) 0.963(2)
H18_2 H 0.531042 0.832635 0.894559
C29_2 C 0.5251(18) 0.9783(12) 0.9466(13)
C34_2 C 0.6425(25) 0.8913(18) 0.978(3)
H21_2 H 0.657580 0.845360 0.982171
H22_2 H 0.672243 0.927157 0.921855
C1_2 C 0.8450(12) 0.3169(12) 0.9853(13)
H1_2 H 0.875871 0.283582 0.988545
C2_2 C 0.7660(14) 0.2707(13) 0.9142(16)
C6_2 C 0.9767(12) 0.4606(13) 0.9990(13)
S5_2 S 0.510(6) 0.279(5) 0.253(4)
C31_2 C 0.5100(27) 0.197(2) 0.085(2)
H19_2 H 0.502296 0.151767 0.130215
H20_2 H 0.572938 0.236994 0.077331
C32_2 C 0.4693(26) 0.248(2) 0.127(2)
C33_2 C 0.502(3) 0.377(2) 0.288(3)
H23_2 H 0.688577 0.004415 0.045489
H41_2 H 0.433829 0.361202 0.283701
H42_2 H 0.525805 0.396228 0.362325
H43_2 H 0.541686 0.430899 0.238448
H44_2 H 0.646559 0.0351218 0.323265
H47_2 H 0.488411 0.306687 0.083595
H48_2 H 0.398072 0.207287 0.127212
S1_2 S 0.721(5) 0.231(3) 0.253(4)
C7_2 C 0.803(2) 0.3130(18) 0.085(2)
H3_2 H 0.848233 0.350529 0.130215
H4_2 H 0.763006 0.335944 0.077331
C8_2 C 0.752(2) 0.2213(17) 0.127(2)
C9_2 C 0.623(2) 0.125(2) 0.288(3)
H7_2 H 0.995585 0.684162 0.045489
H25_2 H 0.693313 0.181724 0.083595
H26_2 H 0.792713 0.190785 0.127212
H27_2 H 0.638798 0.0726269 0.283701
H28_2 H 0.603772 0.129577 0.362325
H29_2 H 0.569101 0.110788 0.238448
H38_2 H 0.964878 0.611437 0.323265
loop_
_geom_bond_atom_site_label_1
_geom_bond_atom_site_label_2
_geom_bond_site_symmetry_1
_geom_bond_site_symmetry_2
O3 C2 1_555 1_555
O6 C2 1_555 1_555
N1 C1 1_555 1_555
C1 H1 1_555 1_555
C2 C1 1_555 1_555
S1 C8 1_555 1_555
C7 C1 1_555 1_555
H3 C7 1_555 1_555
H4 C7 1_555 1_555
C8 C7 1_555 1_555
C9 S1 1_555 1_555
Cu8 O4 1_555 1_555
Cu12 O3 1_555 1_555
Sr4 O6 1_555 1_555
O6 Cu8 1_555 1_555
N1 C6 1_555 1_555
N1 Cu8 1_555 1_555
C8 H25 1_555 1_555
C8 H26 1_555 1_555
C9 H27 1_555 1_555
C9 H28 1_555 1_555
C9 H29 1_555 1_555
Cu1 O1 1_555 1_555
Cu2 O1 1_555 1_555
Sr1 O1 1_555 1_555
O2 C4 1_555 1_555
O5 Cu2 1_555 1_555
O7 Cu2 1_555 1_555
N2 Cu2 1_555 1_555
C3 N2 1_555 1_555
H2 C3 1_555 1_555
C4 O7 1_555 1_555
C5 N2 1_555 1_555
S2 C11 1_555 1_555
C10 C3 1_555 1_555
H5 C10 1_555 1_555
H6 C10 1_555 1_555
C11 C10 1_555 1_555
H8 C11 1_555 1_555
C12 S2 1_555 1_555
Cu3 O8 1_555 1_555
Cu4 O8 1_555 1_555
O8 Sr1 1_555 1_555
O9 Cu2 1_555 1_555
O10 C14 1_555 1_555
O11 C17 1_555 1_555
O12 Cu4 1_555 1_555
O13 C14 1_555 1_555
O14 Sr1 1_555 1_555
N3 C13 1_555 1_555
N4 Cu4 1_555 1_555
C13 H9 1_555 1_555
C14 C13 1_555 1_555
C15 N4 1_555 1_555
H10 C15 1_555 1_555
C16 O9 1_555 1_555
C17 N4 1_555 1_555
C18 O12 1_555 1_555
S3 C20 1_555 1_555
S4 C23 1_555 1_555
C19 C13 1_555 1_555
H11 C19 1_555 1_555
H12 C19 1_555 1_555
C20 C19 1_555 1_555
C21 S3 1_555 1_555
C22 C15 1_555 1_555
H13 C22 1_555 1_555
H14 C22 1_555 1_555
C23 C22 1_555 1_555
H15 C23 1_555 1_555
H16 C23 1_555 1_555
C24 S4 1_555 1_555
Cu5 O15 1_555 1_555
Cu6 O2 1_555 1_555
O15 Sr1 1_555 1_555
O16 Cu4 1_555 1_555
O19 Cu6 1_555 1_555
O21 Sr1 1_555 1_555
N6 Cu6 1_555 1_555
C27 N6 1_555 1_555
H18 C27 1_555 1_555
C28 O16 1_555 1_555
C29 N6 1_555 1_555
S6 C35 1_555 1_555
C34 C27 1_555 1_555
H21 C34 1_555 1_555
H22 C34 1_555 1_555
C35 C34 1_555 1_555
H24 C35 1_555 1_555
C36 S6 1_555 1_555
Cu8 O10 1_555 1_555
Cu10 O11 1_555 1_555
Sr4 O13 1_555 1_555
O22 Cu5 1_555 1_555
O23 Cu1 1_555 1_555
O24 Cu3 1_555 1_555
O25 Cu1 1_555 1_555
O26 Cu3 1_555 1_555
O27 Cu5 1_555 1_555
O28 Cu1 1_555 1_555
O29 Sr1 1_555 1_555
O30 Sr1 1_555 1_555
N7 Cu1 1_555 1_555
N8 Cu3 1_555 1_555
N9 Cu5 1_555 1_555
Sr1 O7 1_555 1_555
Sr1 O28 1_555 1_555
C3 C4 1_555 1_555
Cu3 O29 1_555 1_555
Cu4 O14 1_555 1_555
O13 Cu10 1_555 1_555
O14 C16 1_555 1_555
N3 C18 1_555 1_555
N3 Cu10 1_555 1_555
C15 C16 1_555 1_555
C17 C18 1_555 1_555
Cu5 O30 1_555 1_555
Cu6 O15 1_555 1_555
Cu6 O21 1_555 1_555
O21 C28 1_555 1_555
C27 C28 1_555 1_555
C21 H30 1_555 1_555
C21 H31 1_555 1_555
C21 H32 1_555 1_555
C20 H33 1_555 1_555
C20 H34 1_555 1_555
C24 H35 1_555 1_555
C24 H36 1_555 1_555
C24 H37 1_555 1_555
C12 H39 1_555 1_555
C12 H40 1_555 1_555
C36 H45 1_555 1_555
C36 H46 1_555 1_555
O17 C26 1_555 1_555
O20 C26 1_555 1_555
N5 C25 1_555 1_555
C25 H17 1_555 1_555
C26 C25 1_555 1_555
S5 C32 1_555 1_555
C31 C25 1_555 1_555
H19 C31 1_555 1_555
H20 C31 1_555 1_555
C32 C31 1_555 1_555
C33 S5 1_555 1_555
Cu10 O17 1_555 1_555
Cu12 O18 1_555 1_555
Sr4 O20 1_555 1_555
O20 Cu12 1_555 1_555
N5 C30 1_555 1_555
N5 Cu12 1_555 1_555
C33 H41 1_555 1_555
C33 H42 1_555 1_555
C33 H43 1_555 1_555
C32 H47 1_555 1_555
C32 H48 1_555 1_555
O24 C26_2 1_555 1_555
O30 C26_2 1_555 1_555
N9 C25_2 1_555 1_555
C25_2 H17_2 1_555 1_555
C26_2 C25_2 1_555 1_555
N9 C30_2 1_555 1_555
Cu8 O1_2 1_555 1_555
Cu2_2 O1_2 1_555 1_555
Sr4 O1_2 1_555 1_555
O2_2 C4_2 1_555 1_555
O5_2 Cu2_2 1_555 1_555
O7_2 Cu2_2 1_555 1_555
C4_2 O7_2 1_555 1_555
S2_2 C11_2 1_555 1_555
H8_2 C11_2 1_555 1_555
C12_2 S2_2 1_555 1_555
Cu10 O8_2 1_555 1_555
Cu4_2 O8_2 1_555 1_555
O8_2 Sr4 1_555 1_555
O9_2 Cu2_2 1_555 1_555
O12_2 Cu4_2 1_555 1_555
O14_2 Sr4 1_555 1_555
C16_2 O9_2 1_555 1_555
S3_2 C20_2 1_555 1_555
S4_2 C23_2 1_555 1_555
H11_2 C19_2 1_555 1_555
H12_2 C19_2 1_555 1_555
C20_2 C19_2 1_555 1_555
C21_2 S3_2 1_555 1_555
H15_2 C23_2 1_555 1_555
H16_2 C23_2 1_555 1_555
C24_2 S4_2 1_555 1_555
Cu12 O15_2 1_555 1_555
Cu6_2 O2_2 1_555 1_555
O15_2 Sr4 1_555 1_555
O16_2 Cu4_2 1_555 1_555
O19_2 Cu6_2 1_555 1_555
O21_2 Sr4 1_555 1_555
C28_2 O16_2 1_555 1_555
S6_2 C35_2 1_555 1_555
H24_2 C35_2 1_555 1_555
C36_2 S6_2 1_555 1_555
Sr4 O7_2 1_555 1_555
Cu4_2 O14_2 1_555 1_555
O14_2 C16_2 1_555 1_555
Cu6_2 O15_2 1_555 1_555
Cu6_2 O21_2 1_555 1_555
O21_2 C28_2 1_555 1_555
C21_2 H30_2 1_555 1_555
C21_2 H31_2 1_555 1_555
C21_2 H32_2 1_555 1_555
C20_2 H33_2 1_555 1_555
C20_2 H34_2 1_555 1_555
C24_2 H35_2 1_555 1_555
C24_2 H36_2 1_555 1_555
C24_2 H37_2 1_555 1_555
C12_2 H39_2 1_555 1_555
C12_2 H40_2 1_555 1_555
C36_2 H45_2 1_555 1_555
C36_2 H46_2 1_555 1_555
C3_2 N2_2 1_555 1_555
H2_2 C3_2 1_555 1_555
C5_2 N2_2 1_555 1_555
C10_2 C3_2 1_555 1_555
H5_2 C10_2 1_555 1_555
H6_2 C10_2 1_555 1_555
O23 C14_2 1_555 1_555
O26 C17_2 1_555 1_555
O29 C14_2 1_555 1_555
N8 C13_2 1_555 1_555
C13_2 H9_2 1_555 1_555
C14_2 C13_2 1_555 1_555
C15_2 N4_2 1_555 1_555
H10_2 C15_2 1_555 1_555
C17_2 N4_2 1_555 1_555
C22_2 C15_2 1_555 1_555
H13_2 C22_2 1_555 1_555
H14_2 C22_2 1_555 1_555
C27_2 N6_2 1_555 1_555
H18_2 C27_2 1_555 1_555
C29_2 N6_2 1_555 1_555
C34_2 C27_2 1_555 1_555
H21_2 C34_2 1_555 1_555
H22_2 C34_2 1_555 1_555
N8 C18_2 1_555 1_555
C17_2 C18_2 1_555 1_555
O22 C2_2 1_555 1_555
O28 C2_2 1_555 1_555
N7 C1_2 1_555 1_555
C1_2 H1_2 1_555 1_555
C2_2 C1_2 1_555 1_555
N7 C6_2 1_555 1_555
S5_2 C32_2 1_555 1_555
H19_2 C31_2 1_555 1_555
H20_2 C31_2 1_555 1_555
C32_2 C31_2 1_555 1_555
C33_2 S5_2 1_555 1_555
C33_2 H41_2 1_555 1_555
C33_2 H42_2 1_555 1_555
C33_2 H43_2 1_555 1_555
C32_2 H47_2 1_555 1_555
C32_2 H48_2 1_555 1_555
S1_2 C8_2 1_555 1_555
H3_2 C7_2 1_555 1_555
H4_2 C7_2 1_555 1_555
C8_2 C7_2 1_555 1_555
C9_2 S1_2 1_555 1_555
C8_2 H25_2 1_555 1_555
C8_2 H26_2 1_555 1_555
C9_2 H27_2 1_555 1_555
C9_2 H28_2 1_555 1_555
C9_2 H29_2 1_555 1_555

#END
