
###############################################################################
#
# This file contains modified crystal structure data generated from the
# MOF subset of the Cambridge Structural Database (CSD) v543 
# hosted by the Cambridge Crystallographic Data Centre (CCDC).
#
# This work is licensed under the Creative Commons
# Attribution-NonCommercial-ShareAlike 4.0 International License.
# To view a copy of this license, visit
# http://creativecommons.org/licenses/by-nc-sa/4.0/
# or send a letter to
# Creative Commons, PO Box 1866, Mountain View, CA 94042, USA.
#
# CIF created using the CSD Python API on 29 September 2022
# The structure has been converted into the P1 space group
# The structure has a 3D framework
# The original CSD entry ZEDGOI is in the hexagonal crystal system
# The original CSD entry ZEDGOI is in a Sohncke space group
# The framework has been calculated to contain at least 10.0% void space
# The void calculation uses a probe of radius 1.32A, grid spacing 0.4
# The framework is charged, counterions have been retained in the structure
# H atom positions have been added when not included in the experimental data
#
###############################################################################

data_ZEDGOI
_chemical_formula_moiety         '(C72 H96 Cl2 Cu12 N12 O38 S12 Sr2 2-)n'
_symmetry_cell_setting           triclinic
_symmetry_space_group_name_H-M   'P 1'
_symmetry_Int_Tables_number      1
_space_group_name_Hall           'P 1'
loop_
_symmetry_equiv_pos_site_id
_symmetry_equiv_pos_as_xyz
1 x,y,z
_cell_length_a                   17.7980(16)
_cell_length_b                   17.7980(16)
_cell_length_c                   13.6194(14)
_cell_angle_alpha                90
_cell_angle_beta                 90
_cell_angle_gamma                120
_cell_volume                     3736.21
loop_
_atom_site_label
_atom_site_type_symbol
_atom_site_fract_x
_atom_site_fract_y
_atom_site_fract_z
Cl1 Cl 0.666667 0.333333 0.2664(16)
Cl1_2 Cl 0.333333 0.666667 0.7664(16)
O16 O 0.2326(14) 0.6735(9) 0.3587(12)
O17 O 0.0146(16) 0.4427(11) 0.3796(12)
O18 O 0.2908(20) 0.8014(16) 0.4360(15)
N5 N 0.1006(21) 0.6001(14) 0.4691(16)
C25 C 0.2270(22) 0.7236(15) 0.424(2)
C26 C 0.1516(21) 0.6838(15) 0.4952(19)
H17 H 0.118559 0.714207 0.490294
C28 C 0.0217(20) 0.5401(14) 0.507(2)
C31 C 0.184(4) 0.690(2) 0.6004(18)
H19 H 0.178652 0.633639 0.609429
H20 H 0.137336 0.688349 0.638121
C32 C 0.263(6) 0.747(4) 0.666(4)
H21 H 0.301971 0.775300 0.611164
H22 H 0.273451 0.700376 0.682798
C35 C 0.241(9) 0.823(7) 0.807(5)
S5 S 0.349(8) 0.835(5) 0.775(5)
Cu10 Cu 0.42155(16) 0.86834(23) 0.3566(2)
Cu12 Cu 0.13166(23) 0.55321(17) 0.3566(2)
Sr4 Sr 0.333333 0.666667 0.2283(4)
H41 H 0.0252409 0.228585 0.551482
H46 H 0.19495 0.755215 0.823001
H47 H 0.247957 0.862434 0.871217
H48 H 0.217404 0.844386 0.745357
Cu1 Cu 0.55321(17) 0.42155(16) 0.8566(2)
Cu2 Cu 0.55726(17) 0.42694(16) 0.6041(2)
Sr1 Sr 0.666667 0.333333 0.7283(4)
O1 O 0.5313(5) 0.3672(5) 0.7277(12)
O2 O 0.3265(9) 0.5591(11) 0.3587(12)
O3 O 0.5573(11) 0.5719(11) 0.3796(12)
O4 O 0.1986(16) 0.4894(12) 0.4360(15)
O5 O 0.6785(9) 0.4460(10) 0.6024(15)
O6 O 0.4468(11) 0.4317(12) 0.5805(14)
O7 O 0.8058(12) 0.5190(14) 0.5193(15)
N1 N 0.3999(14) 0.5005(15) 0.4691(16)
N2 N 0.5984(11) 0.5076(13) 0.4989(15)
C1 C 0.2764(15) 0.5034(16) 0.424(2)
C2 C 0.3162(15) 0.4678(15) 0.4952(19)
H1 H 0.285793 0.404352 0.490294
C3 C 0.7303(16) 0.4973(18) 0.5328(17)
C4 C 0.4599(14) 0.4816(14) 0.507(2)
C5 C 0.6972(16) 0.5451(19) 0.467(2)
H2 H 0.699807 0.530919 0.398142
C6 C 0.5488(16) 0.5267(15) 0.4563(17)
C7 C 0.310(2) 0.494(3) 0.6004(18)
H3 H 0.366361 0.545013 0.609429
H4 H 0.311651 0.448987 0.638121
C8 C 0.253(4) 0.516(4) 0.666(4)
H5 H 0.224700 0.526671 0.611164
H6 H 0.299624 0.573075 0.682798
C9 C 0.753(3) 0.644(2) 0.482(5)
H7 H 0.813495 0.662271 0.471233
H8 H 0.735759 0.673597 0.435505
C10 C 0.740(3) 0.667(2) 0.587(4)
C11 C 0.177(7) 0.418(6) 0.807(5)
C12 C 0.830(5) 0.799(3) 0.579(6)
S1 S 0.165(5) 0.514(6) 0.775(5)
S2 S 0.804(4) 0.733(4) 0.696(4)
Cu3 Cu 0.57845(16) 0.13166(23) 0.8566(2)
Cu4 Cu 0.57306(16) 0.13032(23) 0.6041(2)
O8 O 0.6328(5) 0.1641(7) 0.7277(12)
O12 O 0.5540(10) 0.2325(13) 0.6024(15)
O13 O 0.5683(12) 0.0151(16) 0.5805(14)
O14 O 0.4810(14) 0.2868(18) 0.5193(15)
N4 N 0.4924(13) 0.0908(17) 0.4989(15)
C15 C 0.5027(18) 0.2330(24) 0.5328(17)
C17 C 0.4549(19) 0.1521(25) 0.467(2)
H10 H 0.469081 0.168888 0.398142
C18 C 0.4733(15) 0.0221(22) 0.4563(17)
C21 C 0.356(2) 0.109(4) 0.482(5)
H15 H 0.337729 0.151224 0.471233
H16 H 0.326403 0.062162 0.435505
C22 C 0.333(2) 0.073(4) 0.587(4)
C24 C 0.201(3) 0.031(6) 0.579(6)
S4 S 0.267(4) 0.071(6) 0.696(4)
Cu5 Cu 0.86834(23) 0.44679(17) 0.8566(2)
Cu6 Cu 0.86968(23) 0.44274(17) 0.6041(2)
O15 O 0.8359(7) 0.4687(5) 0.7277(12)
O19 O 0.7675(13) 0.3215(9) 0.6024(15)
O20 O 0.9849(16) 0.5532(11) 0.5805(14)
O21 O 0.7132(18) 0.1942(12) 0.5193(15)
N6 N 0.9092(17) 0.4016(11) 0.4989(15)
C27 C 0.7670(24) 0.2697(16) 0.5328(17)
C29 C 0.8479(25) 0.3028(16) 0.467(2)
H18 H 0.831112 0.300193 0.398142
C30 C 0.9779(22) 0.4512(16) 0.4563(17)
C33 C 0.891(4) 0.247(3) 0.482(5)
H23 H 0.848776 0.186505 0.471233
H24 H 0.937838 0.264241 0.435505
C34 C 0.927(4) 0.260(3) 0.587(4)
C36 C 0.969(6) 0.170(5) 0.579(6)
S6 S 0.929(6) 0.196(4) 0.696(4)
Cu8 Cu 0.44679(17) 0.57845(16) 0.3566(2)
O22 O 0.6735(9) 0.4409(11) 0.8587(12)
O23 O 0.5591(11) 0.2326(14) 0.8587(12)
O24 O 0.7674(14) 0.3265(9) 0.8587(12)
O25 O 0.4427(11) 0.4281(11) 0.8796(12)
O26 O 0.5719(11) 0.0146(16) 0.8796(12)
O27 O 0.9854(16) 0.5573(11) 0.8796(12)
O28 O 0.8014(16) 0.5106(12) 0.9360(15)
O29 O 0.4894(12) 0.2908(20) 0.9360(15)
O30 O 0.7092(20) 0.1986(16) 0.9360(15)
N7 N 0.6001(14) 0.4995(15) 0.9691(16)
N8 N 0.5005(15) 0.1006(21) 0.9691(16)
N9 N 0.8994(21) 0.3999(14) 0.9691(16)
H25 H 0.244785 0.439735 0.823001
H26 H 0.137566 0.385523 0.871217
H27 H 0.155614 0.373018 0.745357
H31 H 0.70287 0.602763 0.619642
H32 H 0.69744 0.693525 0.573931
H33 H 0.397237 0.100107 0.619642
H34 H 0.306475 0.00391533 0.573931
H36 H 0.133957 0.0129026 0.594173
H37 H 0.227763 0.0823468 0.524094
H38 H 0.771415 0.796655 0.551482
H39 H 0.878946 0.866043 0.594173
H40 H 0.854584 0.772237 0.524094
H42 H 0.987097 0.121054 0.594173
H43 H 0.917653 0.145416 0.524094
H44 H 0.899893 0.29713 0.619642
H45 H 0.996085 0.30256 0.573931
O9 O 0.4409(11) 0.7674(14) 0.3587(12)
O10 O 0.4281(11) 0.9854(16) 0.3796(12)
O11 O 0.5106(12) 0.7092(20) 0.4360(15)
N3 N 0.4995(15) 0.8994(21) 0.4691(16)
C13 C 0.4966(16) 0.7730(22) 0.424(2)
C14 C 0.5322(15) 0.8484(21) 0.4952(19)
H9 H 0.595648 0.881441 0.490294
C16 C 0.5184(14) 0.9783(20) 0.507(2)
C19 C 0.506(3) 0.816(4) 0.6004(18)
H11 H 0.454987 0.821348 0.609429
H12 H 0.551013 0.862664 0.638121
C20 C 0.484(4) 0.737(6) 0.666(4)
H13 H 0.473329 0.698029 0.611164
H14 H 0.426925 0.726549 0.682798
C23 C 0.582(6) 0.759(9) 0.807(5)
S3 S 0.486(6) 0.651(8) 0.775(5)
H28 H 0.560265 0.80505 0.823001
H29 H 0.614477 0.752043 0.871217
H30 H 0.626982 0.782596 0.745357
H35 H 0.203345 0.974759 0.551482
C13_2 C 0.5034(16) 0.2270(22) 0.924(2)
C14_2 C 0.4678(15) 0.1516(21) 0.9952(19)
H9_2 H 0.404352 0.118559 0.990294
Cu2_2 Cu 0.44274(17) 0.57306(16) 0.1041(2)
O1_2 O 0.4687(5) 0.6328(5) 0.2277(12)
O5_2 O 0.3215(9) 0.5540(10) 0.1024(15)
O6_2 O 0.5532(11) 0.5683(12) 0.0805(14)
O7_2 O 0.1942(12) 0.4810(14) 0.0193(15)
C3_2 C 0.2697(16) 0.5027(18) 0.0328(17)
C4_2 C 0.5401(14) 0.5184(14) 0.007(2)
C7_2 C 0.690(2) 0.506(3) 0.1004(18)
H3_2 H 0.633639 0.454987 0.109429
H4_2 H 0.688349 0.551013 0.138121
C8_2 C 0.747(4) 0.484(4) 0.166(4)
H5_2 H 0.775300 0.473329 0.111164
H6_2 H 0.700376 0.426925 0.182798
C10_2 C 0.260(3) 0.333(2) 0.087(4)
C11_2 C 0.823(7) 0.582(6) 0.307(5)
C12_2 C 0.170(5) 0.201(3) 0.079(6)
S1_2 S 0.835(5) 0.486(6) 0.275(5)
S2_2 S 0.196(4) 0.267(4) 0.196(4)
Cu4_2 Cu 0.42694(16) 0.86968(23) 0.1041(2)
O8_2 O 0.3672(5) 0.8359(7) 0.2277(12)
O12_2 O 0.4460(10) 0.7675(13) 0.1024(15)
O13_2 O 0.4317(12) 0.9849(16) 0.0805(14)
O14_2 O 0.5190(14) 0.7132(18) 0.0193(15)
C15_2 C 0.4973(18) 0.7670(24) 0.0328(17)
C22_2 C 0.667(2) 0.927(4) 0.087(4)
C24_2 C 0.799(3) 0.969(6) 0.079(6)
S4_2 S 0.733(4) 0.929(6) 0.196(4)
Cu6_2 Cu 0.13032(23) 0.55726(17) 0.1041(2)
O15_2 O 0.1641(7) 0.5313(5) 0.2277(12)
O19_2 O 0.2325(13) 0.6785(9) 0.1024(15)
O20_2 O 0.0151(16) 0.4468(11) 0.0805(14)
O21_2 O 0.2868(18) 0.8058(12) 0.0193(15)
C27_2 C 0.2330(24) 0.7303(16) 0.0328(17)
C34_2 C 0.073(4) 0.740(3) 0.087(4)
C36_2 C 0.031(6) 0.830(5) 0.079(6)
S6_2 S 0.071(6) 0.804(4) 0.196(4)
H25_2 H 0.755215 0.560265 0.323001
H26_2 H 0.862434 0.614477 0.371217
H27_2 H 0.844386 0.626982 0.245357
H31_2 H 0.29713 0.397237 0.119642
H32_2 H 0.30256 0.306475 0.0739314
H33_2 H 0.602763 0.899893 0.119642
H34_2 H 0.693525 0.996085 0.0739314
H36_2 H 0.866043 0.987097 0.0941734
H37_2 H 0.772237 0.917653 0.0240944
H38_2 H 0.228585 0.203345 0.0514819
H39_2 H 0.121054 0.133957 0.0941734
H40_2 H 0.145416 0.227763 0.0240944
H42_2 H 0.0129026 0.878946 0.0941734
H43_2 H 0.0823468 0.854584 0.0240944
H44_2 H 0.100107 0.70287 0.119642
H45_2 H 0.00391533 0.69744 0.0739314
N2_2 N 0.4016(11) 0.4924(13) 0.9989(15)
C1_2 C 0.7236(15) 0.4966(16) 0.924(2)
C2_2 C 0.6838(15) 0.5322(15) 0.9952(19)
H1_2 H 0.714207 0.595648 0.990294
C5_2 C 0.3028(16) 0.4549(19) 0.967(2)
H2_2 H 0.300193 0.469081 0.898142
C6_2 C 0.4512(16) 0.4733(15) 0.9563(17)
C9_2 C 0.247(3) 0.356(2) 0.982(5)
H7_2 H 0.186505 0.337729 0.971233
H8_2 H 0.264241 0.326403 0.935505
N4_2 N 0.5076(13) 0.9092(17) 0.9989(15)
C17_2 C 0.5451(19) 0.8479(25) 0.967(2)
H10_2 H 0.530919 0.831112 0.898142
C18_2 C 0.5267(15) 0.9779(22) 0.9563(17)
C21_2 C 0.644(2) 0.891(4) 0.982(5)
H15_2 H 0.662271 0.848776 0.971233
H16_2 H 0.673597 0.937838 0.935505
N6_2 N 0.0908(17) 0.5984(11) 0.9989(15)
C29_2 C 0.1521(25) 0.6972(16) 0.967(2)
H18_2 H 0.168888 0.699807 0.898142
C30_2 C 0.0221(22) 0.5488(16) 0.9563(17)
C33_2 C 0.109(4) 0.753(3) 0.982(5)
H23_2 H 0.151224 0.813495 0.971233
H24_2 H 0.062162 0.735759 0.935505
C25_2 C 0.7730(22) 0.2764(15) 0.924(2)
C26_2 C 0.8484(21) 0.3162(15) 0.9952(19)
H17_2 H 0.881441 0.285793 0.990294
C16_2 C 0.4816(14) 0.0217(20) 0.007(2)
C19_2 C 0.494(3) 0.184(4) 0.1004(18)
H11_2 H 0.545013 0.178652 0.109429
H12_2 H 0.448987 0.137336 0.138121
C20_2 C 0.516(4) 0.263(6) 0.166(4)
H13_2 H 0.526671 0.301971 0.111164
H14_2 H 0.573075 0.273451 0.182798
C23_2 C 0.418(6) 0.241(9) 0.307(5)
S3_2 S 0.514(6) 0.349(8) 0.275(5)
H28_2 H 0.439735 0.19495 0.323001
H29_2 H 0.385523 0.247957 0.371217
H30_2 H 0.373018 0.217404 0.245357
H35_2 H 0.796655 0.0252409 0.0514819
C28_2 C 0.9783(20) 0.4599(14) 0.007(2)
C31_2 C 0.816(4) 0.310(2) 0.1004(18)
H19_2 H 0.821348 0.366361 0.109429
H20_2 H 0.862664 0.311651 0.138121
C32_2 C 0.737(6) 0.253(4) 0.166(4)
H21_2 H 0.698029 0.224700 0.111164
H22_2 H 0.726549 0.299624 0.182798
C35_2 C 0.759(9) 0.177(7) 0.307(5)
S5_2 S 0.651(8) 0.165(5) 0.275(5)
H41_2 H 0.974759 0.771415 0.0514819
H46_2 H 0.80505 0.244785 0.323001
H47_2 H 0.752043 0.137566 0.371217
H48_2 H 0.782596 0.155614 0.245357
loop_
_geom_bond_atom_site_label_1
_geom_bond_atom_site_label_2
_geom_bond_site_symmetry_1
_geom_bond_site_symmetry_2
O16 C25 1_555 1_555
O18 C25 1_555 1_555
N5 C26 1_555 1_555
C25 C26 1_555 1_555
C26 H17 1_555 1_555
C31 C26 1_555 1_555
H19 C31 1_555 1_555
H20 C31 1_555 1_555
C32 C31 1_555 1_555
H21 C32 1_555 1_555
H22 C32 1_555 1_555
C35 S5 1_555 1_555
S5 C32 1_555 1_555
Cu10 O18 1_555 1_555
Cu12 O16 1_555 1_555
Sr4 O16 1_555 1_555
O17 Cu12 1_555 1_555
N5 C28 1_555 1_555
N5 Cu12 1_555 1_555
C35 H46 1_555 1_555
C35 H47 1_555 1_555
C35 H48 1_555 1_555
Cu1 O1 1_555 1_555
Cu2 O1 1_555 1_555
Sr1 O1 1_555 1_555
O2 C1 1_555 1_555
O3 C6 1_555 1_555
O4 C1 1_555 1_555
O5 Cu2 1_555 1_555
O6 Cu2 1_555 1_555
O7 C3 1_555 1_555
N1 C2 1_555 1_555
N2 Cu2 1_555 1_555
C1 C2 1_555 1_555
C2 H1 1_555 1_555
C3 O5 1_555 1_555
C4 O6 1_555 1_555
C5 N2 1_555 1_555
H2 C5 1_555 1_555
C6 N2 1_555 1_555
C7 C2 1_555 1_555
H3 C7 1_555 1_555
H4 C7 1_555 1_555
C8 C7 1_555 1_555
H5 C8 1_555 1_555
H6 C8 1_555 1_555
C9 C5 1_555 1_555
H7 C9 1_555 1_555
H8 C9 1_555 1_555
C10 C9 1_555 1_555
C11 S1 1_555 1_555
C12 S2 1_555 1_555
S1 C8 1_555 1_555
S2 C10 1_555 1_555
Cu3 O8 1_555 1_555
Cu4 O8 1_555 1_555
O8 Sr1 1_555 1_555
O12 Sr1 1_555 1_555
O13 Cu4 1_555 1_555
O14 Cu2 1_555 1_555
N4 Cu4 1_555 1_555
C15 O12 1_555 1_555
C17 N4 1_555 1_555
H10 C17 1_555 1_555
C18 N4 1_555 1_555
C21 C17 1_555 1_555
H15 C21 1_555 1_555
H16 C21 1_555 1_555
C22 C21 1_555 1_555
C24 S4 1_555 1_555
S4 C22 1_555 1_555
Cu5 O15 1_555 1_555
Cu6 O7 1_555 1_555
O15 Sr1 1_555 1_555
O19 Sr1 1_555 1_555
O20 Cu6 1_555 1_555
O21 Cu4 1_555 1_555
N6 Cu6 1_555 1_555
C27 O19 1_555 1_555
C29 N6 1_555 1_555
H18 C29 1_555 1_555
C30 N6 1_555 1_555
C33 C29 1_555 1_555
H23 C33 1_555 1_555
H24 C33 1_555 1_555
C34 C33 1_555 1_555
C36 S6 1_555 1_555
S6 C34 1_555 1_555
Cu8 O2 1_555 1_555
Cu12 O4 1_555 1_555
Sr4 O2 1_555 1_555
O22 Cu1 1_555 1_555
O23 Sr1 1_555 1_555
O24 Sr1 1_555 1_555
O25 Cu1 1_555 1_555
O26 Cu3 1_555 1_555
O27 Cu5 1_555 1_555
O28 Cu5 1_555 1_555
O29 Cu1 1_555 1_555
O30 Cu3 1_555 1_555
N7 Cu1 1_555 1_555
N8 Cu3 1_555 1_555
N9 Cu5 1_555 1_555
Sr1 O5 1_555 1_555
Sr1 O22 1_555 1_555
O3 Cu8 1_555 1_555
N1 C4 1_555 1_555
N1 Cu8 1_555 1_555
C3 C5 1_555 1_555
C4 C6 1_555 1_555
Cu3 O23 1_555 1_555
Cu4 O12 1_555 1_555
O14 C15 1_555 1_555
C15 C17 1_555 1_555
Cu5 O24 1_555 1_555
Cu6 O15 1_555 1_555
Cu6 O19 1_555 1_555
O21 C27 1_555 1_555
C27 C29 1_555 1_555
C11 H25 1_555 1_555
C11 H26 1_555 1_555
C11 H27 1_555 1_555
C10 H31 1_555 1_555
C10 H32 1_555 1_555
C22 H33 1_555 1_555
C22 H34 1_555 1_555
C24 H36 1_555 1_555
C24 H37 1_555 1_555
C12 H38 1_555 1_555
C12 H39 1_555 1_555
C12 H40 1_555 1_555
C36 H42 1_555 1_555
C36 H43 1_555 1_555
C34 H44 1_555 1_555
C34 H45 1_555 1_555
O9 C13 1_555 1_555
O11 C13 1_555 1_555
N3 C14 1_555 1_555
C13 C14 1_555 1_555
C14 H9 1_555 1_555
C19 C14 1_555 1_555
H11 C19 1_555 1_555
H12 C19 1_555 1_555
C20 C19 1_555 1_555
H13 C20 1_555 1_555
H14 C20 1_555 1_555
C23 S3 1_555 1_555
S3 C20 1_555 1_555
Cu8 O11 1_555 1_555
Cu10 O9 1_555 1_555
Sr4 O9 1_555 1_555
O10 Cu10 1_555 1_555
N3 C16 1_555 1_555
N3 Cu10 1_555 1_555
C23 H28 1_555 1_555
C23 H29 1_555 1_555
C23 H30 1_555 1_555
O23 C13_2 1_555 1_555
O29 C13_2 1_555 1_555
N8 C14_2 1_555 1_555
C13_2 C14_2 1_555 1_555
C14_2 H9_2 1_555 1_555
Cu8 O1_2 1_555 1_555
Cu2_2 O1_2 1_555 1_555
Sr4 O1_2 1_555 1_555
O5_2 Cu2_2 1_555 1_555
O6_2 Cu2_2 1_555 1_555
O7_2 C3_2 1_555 1_555
C3_2 O5_2 1_555 1_555
C4_2 O6_2 1_555 1_555
H3_2 C7_2 1_555 1_555
H4_2 C7_2 1_555 1_555
C8_2 C7_2 1_555 1_555
H5_2 C8_2 1_555 1_555
H6_2 C8_2 1_555 1_555
C11_2 S1_2 1_555 1_555
C12_2 S2_2 1_555 1_555
S1_2 C8_2 1_555 1_555
S2_2 C10_2 1_555 1_555
Cu10 O8_2 1_555 1_555
Cu4_2 O8_2 1_555 1_555
O8_2 Sr4 1_555 1_555
O12_2 Sr4 1_555 1_555
O13_2 Cu4_2 1_555 1_555
O14_2 Cu2_2 1_555 1_555
C15_2 O12_2 1_555 1_555
C24_2 S4_2 1_555 1_555
S4_2 C22_2 1_555 1_555
Cu12 O15_2 1_555 1_555
Cu6_2 O7_2 1_555 1_555
O15_2 Sr4 1_555 1_555
O19_2 Sr4 1_555 1_555
O20_2 Cu6_2 1_555 1_555
O21_2 Cu4_2 1_555 1_555
C27_2 O19_2 1_555 1_555
C36_2 S6_2 1_555 1_555
S6_2 C34_2 1_555 1_555
Sr4 O5_2 1_555 1_555
Cu4_2 O12_2 1_555 1_555
O14_2 C15_2 1_555 1_555
Cu6_2 O15_2 1_555 1_555
Cu6_2 O19_2 1_555 1_555
O21_2 C27_2 1_555 1_555
C11_2 H25_2 1_555 1_555
C11_2 H26_2 1_555 1_555
C11_2 H27_2 1_555 1_555
C10_2 H31_2 1_555 1_555
C10_2 H32_2 1_555 1_555
C22_2 H33_2 1_555 1_555
C22_2 H34_2 1_555 1_555
C24_2 H36_2 1_555 1_555
C24_2 H37_2 1_555 1_555
C12_2 H38_2 1_555 1_555
C12_2 H39_2 1_555 1_555
C12_2 H40_2 1_555 1_555
C36_2 H42_2 1_555 1_555
C36_2 H43_2 1_555 1_555
C34_2 H44_2 1_555 1_555
C34_2 H45_2 1_555 1_555
O22 C1_2 1_555 1_555
O25 C6_2 1_555 1_555
O28 C1_2 1_555 1_555
N7 C2_2 1_555 1_555
C1_2 C2_2 1_555 1_555
C2_2 H1_2 1_555 1_555
C5_2 N2_2 1_555 1_555
H2_2 C5_2 1_555 1_555
C6_2 N2_2 1_555 1_555
C9_2 C5_2 1_555 1_555
H7_2 C9_2 1_555 1_555
H8_2 C9_2 1_555 1_555
C17_2 N4_2 1_555 1_555
H10_2 C17_2 1_555 1_555
C18_2 N4_2 1_555 1_555
C21_2 C17_2 1_555 1_555
H15_2 C21_2 1_555 1_555
H16_2 C21_2 1_555 1_555
C29_2 N6_2 1_555 1_555
H18_2 C29_2 1_555 1_555
C30_2 N6_2 1_555 1_555
C33_2 C29_2 1_555 1_555
H23_2 C33_2 1_555 1_555
H24_2 C33_2 1_555 1_555
O24 C25_2 1_555 1_555
O30 C25_2 1_555 1_555
N9 C26_2 1_555 1_555
C25_2 C26_2 1_555 1_555
C26_2 H17_2 1_555 1_555
H11_2 C19_2 1_555 1_555
H12_2 C19_2 1_555 1_555
C20_2 C19_2 1_555 1_555
H13_2 C20_2 1_555 1_555
H14_2 C20_2 1_555 1_555
C23_2 S3_2 1_555 1_555
S3_2 C20_2 1_555 1_555
C23_2 H28_2 1_555 1_555
C23_2 H29_2 1_555 1_555
C23_2 H30_2 1_555 1_555
H19_2 C31_2 1_555 1_555
H20_2 C31_2 1_555 1_555
C32_2 C31_2 1_555 1_555
H21_2 C32_2 1_555 1_555
H22_2 C32_2 1_555 1_555
C35_2 S5_2 1_555 1_555
S5_2 C32_2 1_555 1_555
C35_2 H46_2 1_555 1_555
C35_2 H47_2 1_555 1_555
C35_2 H48_2 1_555 1_555

#END
