
###############################################################################
#
# This file contains modified crystal structure data generated from the
# MOF subset of the Cambridge Structural Database (CSD) v543 
# hosted by the Cambridge Crystallographic Data Centre (CCDC).
#
# This work is licensed under the Creative Commons
# Attribution-NonCommercial-ShareAlike 4.0 International License.
# To view a copy of this license, visit
# http://creativecommons.org/licenses/by-nc-sa/4.0/
# or send a letter to
# Creative Commons, PO Box 1866, Mountain View, CA 94042, USA.
#
# CIF created using the CSD Python API on 29 September 2022
# The structure has been converted into the P1 space group
# The structure has a 3D framework
# The original CSD entry ZEDGIC is in the hexagonal crystal system
# The original CSD entry ZEDGIC is in a Sohncke space group
# The framework has been calculated to contain at least 10.0% void space
# The void calculation uses a probe of radius 1.32A, grid spacing 0.4
# The framework is charged, counterions have been retained in the structure
# H atom positions have been added when not included in the experimental data
#
###############################################################################

data_ZEDGIC
_chemical_formula_moiety         '(C72 H96 Cl2 Cu12 N12 O38 S12 Sr1 2-)n'
_symmetry_cell_setting           triclinic
_symmetry_space_group_name_H-M   'P 1'
_symmetry_Int_Tables_number      1
_space_group_name_Hall           'P 1'
loop_
_symmetry_equiv_pos_site_id
_symmetry_equiv_pos_as_xyz
1 x,y,z
_cell_length_a                   17.575(13)
_cell_length_b                   17.575(13)
_cell_length_c                   13.837(11)
_cell_angle_alpha                90
_cell_angle_beta                 90
_cell_angle_gamma                120
_cell_volume                     3701.38
loop_
_atom_site_label
_atom_site_type_symbol
_atom_site_fract_x
_atom_site_fract_y
_atom_site_fract_z
Cl1 Cl 0.333333 0.666667 0.459(2)
Cl1_2 Cl 0.666667 0.333333 0.959(2)
Cu1 Cu 0.5718(2) 0.44177(19) 0.6183(3)
Cu2 Cu 0.42212(19) 0.55279(19) 0.8672(3)
Sr1 Sr 0.666667 0.333333 0.4946(5)
O1 O 0.6319(6) 0.4681(5) 0.4954(14)
O2 O 0.5677(12) 0.5523(12) 0.6395(13)
O3 O 0.4297(13) 0.4418(12) 0.8426(16)
O4 O 0.4465(11) 0.6762(10) 0.8694(14)
O5 O 0.5181(13) 0.8043(12) 0.7945(15)
O6 O 0.4905(17) 0.1966(14) 0.7078(16)
O7 O 0.5569(12) 0.3237(11) 0.6236(14)
N1 N 0.4897(14) 0.3978(14) 0.7230(18)
N2 N 0.4989(15) 0.5968(14) 0.7544(16)
C1 C 0.4768(17) 0.4555(18) 0.768(2)
C2 C 0.5203(16) 0.5447(16) 0.7163(19)
C3 C 0.4532(18) 0.3032(17) 0.748(3)
H1 H 0.458832 0.296878 0.817157
C4 C 0.5032(16) 0.2702(17) 0.6935(18)
C5 C 0.492(2) 0.722(2) 0.807(2)
C6 C 0.5313(16) 0.6833(15) 0.7258(18)
H2 H 0.595650 0.715813 0.725747
C7 C 0.494(2) 0.6879(19) 0.626(2)
C8 C 0.529(3) 0.776(3) 0.578(2)
C9 C 0.3528(18) 0.2530(19) 0.718(2)
H3 H 0.327940 0.193085 0.740934
H4 H 0.324648 0.279329 0.754321
C10 C 0.323(3) 0.248(3) 0.610(3)
C11 C 0.156(9) 0.231(9) 0.493(8)
S1 S 0.1982(19) 0.1832(19) 0.588(2)
C12 C 0.514(5) 0.879(2) 0.462(4)
S2 S 0.4753(15) 0.7606(14) 0.4588(15)
Cu3 Cu 0.55823(19) 0.13003(28) 0.6183(3)
O8 O 0.5319(5) 0.1638(8) 0.4954(14)
O9 O 0.4477(12) 0.0154(17) 0.6395(13)
O13 O 0.8034(14) 0.2939(22) 0.7078(16)
O14 O 0.6763(11) 0.2332(16) 0.6236(14)
N3 N 0.6022(14) 0.0919(20) 0.7230(18)
C13 C 0.5445(18) 0.0213(25) 0.768(2)
C15 C 0.6968(17) 0.1500(25) 0.748(3)
H5 H 0.703122 0.161954 0.817157
C16 C 0.7298(17) 0.2330(23) 0.6935(18)
C21 C 0.7470(19) 0.0998(26) 0.718(2)
H7 H 0.806915 0.134855 0.740934
H8 H 0.720671 0.045319 0.754321
C22 C 0.752(3) 0.075(4) 0.610(3)
S3 S 0.8168(19) 0.0150(27) 0.588(2)
Cu6 Cu 0.13067(27) 0.57788(19) 0.8672(3)
O17 O 0.0121(18) 0.5703(13) 0.8426(16)
O18 O 0.2297(15) 0.5535(11) 0.8694(14)
O19 O 0.2862(18) 0.4819(13) 0.7945(15)
N6 N 0.0979(21) 0.5011(15) 0.7544(16)
C26 C 0.0244(23) 0.4797(16) 0.7163(19)
C29 C 0.230(3) 0.508(2) 0.807(2)
C30 C 0.1520(22) 0.4687(16) 0.7258(18)
H10 H 0.120163 0.404350 0.725747
C31 C 0.1939(28) 0.506(2) 0.626(2)
C32 C 0.247(4) 0.471(3) 0.578(2)
C35 C 0.075(13) 0.844(9) 0.493(8)
C36 C 0.365(5) 0.486(5) 0.462(4)
S6 S 0.2853(21) 0.5247(15) 0.4588(15)
Cu8 Cu 0.86997(28) 0.4282(2) 0.6183(3)
Cu9 Cu 0.44721(19) 0.86933(27) 0.8672(3)
Cu11 Cu 0.57788(19) 0.44721(19) 0.3672(3)
Cu12 Cu 0.55279(19) 0.13067(27) 0.3672(3)
Sr4 Sr 0.333333 0.666667 0.9946(5)
O22 O 0.8362(8) 0.3681(6) 0.4954(14)
O23 O 0.3681(6) 0.5319(5) 0.9954(14)
O25 O 0.1638(8) 0.6319(6) 0.9954(14)
O26 O 0.5535(11) 0.3238(10) 0.3694(14)
O27 O 0.6762(10) 0.2297(15) 0.3694(14)
O28 O 0.7703(15) 0.4465(11) 0.3694(14)
O30 O 0.1957(12) 0.7138(18) 0.7945(15)
O32 O 0.7061(22) 0.5095(17) 0.7078(16)
O33 O 0.7668(16) 0.4431(12) 0.6236(14)
H13 H 0.423496 0.660528 0.634912
H14 H 0.506026 0.646644 0.576863
H15 H 0.352582 0.217119 0.567929
H16 H 0.347609 0.314889 0.584415
H17 H 0.585424 0.915503 0.466534
H18 H 0.493112 0.897799 0.396528
H19 H 0.486389 0.893838 0.524833
H20 H 0.186884 0.233896 0.423819
H21 H 0.0850467 0.189565 0.486262
H22 H 0.171871 0.296948 0.514445
H23 H 0.599737 0.80613 0.568234
H24 H 0.514882 0.818312 0.62295
H35 H 0.782881 0.135463 0.567929
H36 H 0.685111 0.0327202 0.584415
H37 H 0.330079 0.414576 0.466534
H38 H 0.404687 0.506888 0.396528
H39 H 0.407449 0.513611 0.524833
H42 H 0.0470118 0.813116 0.423819
H43 H 0.104518 0.914953 0.486262
H44 H 0.125077 0.828129 0.514445
H45 H 0.206392 0.400263 0.568234
H46 H 0.30343 0.485118 0.62295
H47 H 0.237032 0.576504 0.634912
H48 H 0.140618 0.493974 0.576863
O10 O 0.5582(12) 0.9879(18) 0.8426(16)
O11 O 0.3238(10) 0.7703(15) 0.8694(14)
N4 N 0.4032(14) 0.9021(21) 0.7544(16)
C14 C 0.4553(16) 0.9756(23) 0.7163(19)
C17 C 0.278(2) 0.770(3) 0.807(2)
C18 C 0.3167(15) 0.8480(22) 0.7258(18)
H6 H 0.284187 0.879837 0.725747
C19 C 0.3121(19) 0.8061(28) 0.626(2)
C20 C 0.224(3) 0.753(4) 0.578(2)
C23 C 0.769(9) 0.925(13) 0.493(8)
C24 C 0.121(2) 0.635(5) 0.462(4)
S4 S 0.2394(14) 0.7147(21) 0.4588(15)
O24 O 0.4681(5) 0.8362(8) 0.9954(14)
H25 H 0.19387 0.793608 0.568234
H26 H 0.181688 0.69657 0.62295
H27 H 0.339472 0.762968 0.634912
H28 H 0.353356 0.859382 0.576863
H29 H 0.766104 0.952988 0.423819
H30 H 0.810435 0.895482 0.486262
H31 H 0.703052 0.874923 0.514445
H32 H 0.0844974 0.669921 0.466534
H33 H 0.102201 0.595313 0.396528
H34 H 0.106162 0.592551 0.524833
O16 O 0.9846(17) 0.4323(12) 0.6395(13)
N5 N 0.9081(20) 0.5103(14) 0.7230(18)
C25 C 0.9787(25) 0.5232(17) 0.768(2)
C27 C 0.8500(25) 0.5468(18) 0.748(3)
H9 H 0.838046 0.541168 0.817157
C28 C 0.7670(23) 0.4968(16) 0.6935(18)
C33 C 0.9002(26) 0.6472(18) 0.718(2)
H11 H 0.865145 0.672060 0.740934
H12 H 0.954681 0.675352 0.754321
C34 C 0.925(4) 0.677(3) 0.610(3)
S5 S 0.9850(27) 0.8018(19) 0.588(2)
Cu13 Cu 0.86933(27) 0.42212(19) 0.3672(3)
H40 H 0.864537 0.647418 0.567929
H41 H 0.96728 0.652391 0.584415
Cu5 Cu 0.13003(28) 0.5718(2) 0.1183(3)
O16_2 O 0.0154(17) 0.5677(12) 0.1395(13)
O20 O 0.2939(22) 0.4905(17) 0.2078(16)
O21 O 0.2332(16) 0.5569(12) 0.1236(14)
N5_2 N 0.0919(20) 0.4897(14) 0.2230(18)
C25_2 C 0.0213(25) 0.4768(17) 0.268(2)
C27_2 C 0.1500(25) 0.4532(18) 0.248(3)
H9_2 H 0.161954 0.458832 0.317157
C28_2 C 0.2330(23) 0.5032(16) 0.1935(18)
C33_2 C 0.0998(26) 0.3528(18) 0.218(2)
H11_2 H 0.134855 0.327940 0.240934
H12_2 H 0.045319 0.324648 0.254321
C34_2 C 0.075(4) 0.323(3) 0.110(3)
S5_2 S 0.0150(27) 0.1982(19) 0.088(2)
Cu7 Cu 0.4282(2) 0.55823(19) 0.1183(3)
O31 O 0.1966(14) 0.7061(22) 0.2078(16)
H40_2 H 0.135463 0.352582 0.067929
H41_2 H 0.0327202 0.347609 0.0844154
O10_2 O 0.4418(12) 0.0121(18) 0.3426(16)
O12 O 0.8043(12) 0.2862(18) 0.2945(15)
N4_2 N 0.5968(14) 0.0979(21) 0.2544(16)
C14_2 C 0.5447(16) 0.0244(23) 0.2163(19)
C17_2 C 0.722(2) 0.230(3) 0.307(2)
C18_2 C 0.6833(15) 0.1520(22) 0.2258(18)
H6_2 H 0.715813 0.120163 0.225747
C19_2 C 0.6879(19) 0.1939(28) 0.126(2)
C20_2 C 0.776(3) 0.247(4) 0.078(2)
O29 O 0.4819(13) 0.1957(12) 0.2945(15)
H25_2 H 0.80613 0.206392 0.0682338
H26_2 H 0.818312 0.30343 0.12295
H27_2 H 0.660528 0.237032 0.134912
H28_2 H 0.646644 0.140618 0.0768633
H31_2 H 0.296948 0.125077 0.0144447
H34_2 H 0.893838 0.407449 0.0248331
C23_2 C 0.231(9) 0.075(13) 0.993(8)
C24_2 C 0.879(2) 0.365(5) 0.962(4)
S4_2 S 0.7606(14) 0.2853(21) 0.9588(15)
H29_2 H 0.233896 0.0470118 0.923819
H30_2 H 0.189565 0.104518 0.986262
H32_2 H 0.915503 0.330079 0.966534
H33_2 H 0.897799 0.404687 0.896528
O2_2 O 0.4323(12) 0.4477(12) 0.1395(13)
O3_2 O 0.5703(13) 0.5582(12) 0.3426(16)
O6_2 O 0.5095(17) 0.8034(14) 0.2078(16)
O7_2 O 0.4431(12) 0.6763(11) 0.1236(14)
N1_2 N 0.5103(14) 0.6022(14) 0.2230(18)
N2_2 N 0.5011(15) 0.4032(14) 0.2544(16)
C1_2 C 0.5232(17) 0.5445(18) 0.268(2)
C2_2 C 0.4797(16) 0.4553(16) 0.2163(19)
C3_2 C 0.5468(18) 0.6968(17) 0.248(3)
H1_2 H 0.541168 0.703122 0.317157
C4_2 C 0.4968(16) 0.7298(17) 0.1935(18)
C5_2 C 0.508(2) 0.278(2) 0.307(2)
C6_2 C 0.4687(16) 0.3167(15) 0.2258(18)
H2_2 H 0.404350 0.284187 0.225747
C7_2 C 0.506(2) 0.3121(19) 0.126(2)
C8_2 C 0.471(3) 0.224(3) 0.078(2)
C9_2 C 0.6472(18) 0.7470(19) 0.218(2)
H3_2 H 0.672060 0.806915 0.240934
H4_2 H 0.675352 0.720671 0.254321
C10_2 C 0.677(3) 0.752(3) 0.110(3)
S1_2 S 0.8018(19) 0.8168(19) 0.088(2)
Cu3_2 Cu 0.44177(19) 0.86997(28) 0.1183(3)
O9_2 O 0.5523(12) 0.9846(17) 0.1395(13)
O14_2 O 0.3237(11) 0.7668(16) 0.1236(14)
N3_2 N 0.3978(14) 0.9081(20) 0.2230(18)
C13_2 C 0.4555(18) 0.9787(25) 0.268(2)
C15_2 C 0.3032(17) 0.8500(25) 0.248(3)
H5_2 H 0.296878 0.838046 0.317157
C16_2 C 0.2702(17) 0.7670(23) 0.1935(18)
C21_2 C 0.2530(19) 0.9002(26) 0.218(2)
H7_2 H 0.193085 0.865145 0.240934
H8_2 H 0.279329 0.954681 0.254321
C22_2 C 0.248(3) 0.925(4) 0.110(3)
S3_2 S 0.1832(19) 0.9850(27) 0.088(2)
O17_2 O 0.9879(18) 0.4297(13) 0.3426(16)
O19_2 O 0.7138(18) 0.5181(13) 0.2945(15)
N6_2 N 0.9021(21) 0.4989(15) 0.2544(16)
C26_2 C 0.9756(23) 0.5203(16) 0.2163(19)
C29_2 C 0.770(3) 0.492(2) 0.307(2)
C30_2 C 0.8480(22) 0.5313(16) 0.2258(18)
H10_2 H 0.879837 0.595650 0.225747
C31_2 C 0.8061(28) 0.494(2) 0.126(2)
C32_2 C 0.753(4) 0.529(3) 0.078(2)
H13_2 H 0.576504 0.339472 0.134912
H14_2 H 0.493974 0.353356 0.0768633
H15_2 H 0.647418 0.782881 0.067929
H16_2 H 0.652391 0.685111 0.0844154
H19_2 H 0.513611 0.106162 0.0248331
H22_2 H 0.828129 0.703052 0.0144447
H23_2 H 0.400263 0.19387 0.0682338
H24_2 H 0.485118 0.181688 0.12295
H35_2 H 0.217119 0.864537 0.067929
H36_2 H 0.314889 0.96728 0.0844154
H39_2 H 0.592551 0.486389 0.0248331
H44_2 H 0.874923 0.171871 0.0144447
H45_2 H 0.793608 0.599737 0.0682338
H46_2 H 0.69657 0.514882 0.12295
H47_2 H 0.762968 0.423496 0.134912
H48_2 H 0.859382 0.506026 0.0768633
C11_2 C 0.844(9) 0.769(9) 0.993(8)
C12_2 C 0.486(5) 0.121(2) 0.962(4)
S2_2 S 0.5247(15) 0.2394(14) 0.9588(15)
C35_2 C 0.925(13) 0.156(9) 0.993(8)
C36_2 C 0.635(5) 0.514(5) 0.962(4)
S6_2 S 0.7147(21) 0.4753(15) 0.9588(15)
H17_2 H 0.414576 0.0844974 0.966534
H18_2 H 0.506888 0.102201 0.896528
H20_2 H 0.813116 0.766104 0.923819
H21_2 H 0.914953 0.810435 0.986262
H37_2 H 0.669921 0.585424 0.966534
H38_2 H 0.595313 0.493112 0.896528
H42_2 H 0.952988 0.186884 0.923819
H43_2 H 0.895482 0.0850467 0.986262
loop_
_geom_bond_atom_site_label_1
_geom_bond_atom_site_label_2
_geom_bond_site_symmetry_1
_geom_bond_site_symmetry_2
Cu1 O1 1_555 1_555
Cu2 O3 1_555 1_555
Sr1 O1 1_555 1_555
O1 Cu11 1_555 1_555
O2 Cu1 1_555 1_555
O3 C1 1_555 1_555
O4 Cu2 1_555 1_555
O5 C5 1_555 1_555
O6 C4 1_555 1_555
O7 Cu1 1_555 1_555
N1 Cu1 1_555 1_555
N2 Cu2 1_555 1_555
C1 N1 1_555 1_555
C2 O2 1_555 1_555
C3 N1 1_555 1_555
H1 C3 1_555 1_555
C4 O7 1_555 1_555
C5 O4 1_555 1_555
C6 N2 1_555 1_555
H2 C6 1_555 1_555
C7 C6 1_555 1_555
C8 C7 1_555 1_555
C9 C3 1_555 1_555
H3 C9 1_555 1_555
H4 C9 1_555 1_555
C10 C9 1_555 1_555
C11 S1 1_555 1_555
S1 C10 1_555 1_555
C12 S2 1_555 1_555
S2 C8 1_555 1_555
Cu3 O6 1_555 1_555
O8 Sr1 1_555 1_555
O9 Cu3 1_555 1_555
O13 C16 1_555 1_555
O14 Sr1 1_555 1_555
N3 Cu3 1_555 1_555
C13 N3 1_555 1_555
C15 N3 1_555 1_555
H5 C15 1_555 1_555
C16 O14 1_555 1_555
C21 C15 1_555 1_555
H7 C21 1_555 1_555
H8 C21 1_555 1_555
C22 C21 1_555 1_555
S3 C22 1_555 1_555
Cu6 O17 1_555 1_555
O18 Cu6 1_555 1_555
O19 Cu2 1_555 1_555
N6 Cu6 1_555 1_555
C29 O18 1_555 1_555
C30 N6 1_555 1_555
H10 C30 1_555 1_555
C31 C30 1_555 1_555
C32 C31 1_555 1_555
C36 S6 1_555 1_555
S6 C32 1_555 1_555
Cu8 O13 1_555 1_555
Cu9 O5 1_555 1_555
Cu11 O26 1_555 1_555
Cu12 O8 1_555 1_555
Sr4 O4 1_555 1_555
O22 Sr1 1_555 1_555
O23 Cu2 1_555 1_555
O25 Cu6 1_555 1_555
O26 Sr1 1_555 1_555
O27 Sr1 1_555 1_555
O28 Sr1 1_555 1_555
O30 Cu6 1_555 1_555
O32 Cu1 1_555 1_555
O33 Sr1 1_555 1_555
Sr1 O7 1_555 1_555
N2 C2 1_555 1_555
C1 C2 1_555 1_555
C3 C4 1_555 1_555
C5 C6 1_555 1_555
Cu3 O8 1_555 1_555
Cu3 O14 1_555 1_555
C15 C16 1_555 1_555
O18 Sr4 1_555 1_555
O19 C29 1_555 1_555
N6 C26 1_555 1_555
C29 C30 1_555 1_555
Cu8 O22 1_555 1_555
Cu8 O33 1_555 1_555
Cu12 O27 1_555 1_555
Sr4 O23 1_555 1_555
Sr4 O25 1_555 1_555
C7 H13 1_555 1_555
C7 H14 1_555 1_555
C10 H15 1_555 1_555
C10 H16 1_555 1_555
C12 H17 1_555 1_555
C12 H18 1_555 1_555
C12 H19 1_555 1_555
C11 H20 1_555 1_555
C11 H21 1_555 1_555
C11 H22 1_555 1_555
C8 H23 1_555 1_555
C8 H24 1_555 1_555
C22 H35 1_555 1_555
C22 H36 1_555 1_555
C36 H37 1_555 1_555
C36 H38 1_555 1_555
C36 H39 1_555 1_555
C35 H42 1_555 1_555
C35 H43 1_555 1_555
C35 H44 1_555 1_555
C32 H45 1_555 1_555
C32 H46 1_555 1_555
C31 H47 1_555 1_555
C31 H48 1_555 1_555
Cu9 O10 1_555 1_555
O11 Cu9 1_555 1_555
O30 C17 1_555 1_555
N4 Cu9 1_555 1_555
C17 O11 1_555 1_555
C18 N4 1_555 1_555
H6 C18 1_555 1_555
C19 C18 1_555 1_555
C20 C19 1_555 1_555
C24 S4 1_555 1_555
S4 C20 1_555 1_555
Sr4 O11 1_555 1_555
O24 Cu9 1_555 1_555
N4 C14 1_555 1_555
C17 C18 1_555 1_555
Sr4 O24 1_555 1_555
C20 H25 1_555 1_555
C20 H26 1_555 1_555
C19 H27 1_555 1_555
C19 H28 1_555 1_555
C23 H29 1_555 1_555
C23 H30 1_555 1_555
C23 H31 1_555 1_555
C24 H32 1_555 1_555
C24 H33 1_555 1_555
C24 H34 1_555 1_555
O22 Cu13 1_555 1_555
O16 Cu8 1_555 1_555
O32 C28 1_555 1_555
N5 Cu8 1_555 1_555
C25 N5 1_555 1_555
C27 N5 1_555 1_555
H9 C27 1_555 1_555
C28 O33 1_555 1_555
C33 C27 1_555 1_555
H11 C33 1_555 1_555
H12 C33 1_555 1_555
C34 C33 1_555 1_555
S5 C34 1_555 1_555
C27 C28 1_555 1_555
C34 H40 1_555 1_555
C34 H41 1_555 1_555
Cu13 O28 1_555 1_555
O16_2 Cu5 1_555 1_555
O20 C28_2 1_555 1_555
O21 Cu5 1_555 1_555
N5_2 Cu5 1_555 1_555
C25_2 N5_2 1_555 1_555
C27_2 N5_2 1_555 1_555
H9_2 C27_2 1_555 1_555
C28_2 O21 1_555 1_555
C33_2 C27_2 1_555 1_555
H11_2 C33_2 1_555 1_555
H12_2 C33_2 1_555 1_555
C34_2 C33_2 1_555 1_555
S5_2 C34_2 1_555 1_555
Cu7 O20 1_555 1_555
O31 Cu5 1_555 1_555
C27_2 C28_2 1_555 1_555
C34_2 H40_2 1_555 1_555
C34_2 H41_2 1_555 1_555
Cu12 O10_2 1_555 1_555
O12 C17_2 1_555 1_555
N4_2 Cu12 1_555 1_555
C17_2 O27 1_555 1_555
C18_2 N4_2 1_555 1_555
H6_2 C18_2 1_555 1_555
C19_2 C18_2 1_555 1_555
C20_2 C19_2 1_555 1_555
Cu13 O12 1_555 1_555
O29 Cu12 1_555 1_555
N4_2 C14_2 1_555 1_555
C17_2 C18_2 1_555 1_555
C20_2 H25_2 1_555 1_555
C20_2 H26_2 1_555 1_555
C19_2 H27_2 1_555 1_555
C19_2 H28_2 1_555 1_555
C24_2 S4_2 1_555 1_555
C23_2 H29_2 1_555 1_555
C23_2 H30_2 1_555 1_555
C24_2 H32_2 1_555 1_555
C24_2 H33_2 1_555 1_555
Cu11 O3_2 1_555 1_555
O2_2 Cu7 1_555 1_555
O3_2 C1_2 1_555 1_555
O29 C5_2 1_555 1_555
O6_2 C4_2 1_555 1_555
O7_2 Cu7 1_555 1_555
N1_2 Cu7 1_555 1_555
N2_2 Cu11 1_555 1_555
C1_2 N1_2 1_555 1_555
C2_2 O2_2 1_555 1_555
C3_2 N1_2 1_555 1_555
H1_2 C3_2 1_555 1_555
C4_2 O7_2 1_555 1_555
C5_2 O26 1_555 1_555
C6_2 N2_2 1_555 1_555
H2_2 C6_2 1_555 1_555
C7_2 C6_2 1_555 1_555
C8_2 C7_2 1_555 1_555
C9_2 C3_2 1_555 1_555
H3_2 C9_2 1_555 1_555
H4_2 C9_2 1_555 1_555
C10_2 C9_2 1_555 1_555
S1_2 C10_2 1_555 1_555
Cu3_2 O6_2 1_555 1_555
O9_2 Cu3_2 1_555 1_555
O31 C16_2 1_555 1_555
N3_2 Cu3_2 1_555 1_555
C13_2 N3_2 1_555 1_555
C15_2 N3_2 1_555 1_555
H5_2 C15_2 1_555 1_555
C16_2 O14_2 1_555 1_555
C21_2 C15_2 1_555 1_555
H7_2 C21_2 1_555 1_555
H8_2 C21_2 1_555 1_555
C22_2 C21_2 1_555 1_555
S3_2 C22_2 1_555 1_555
Cu13 O17_2 1_555 1_555
O19_2 Cu11 1_555 1_555
N6_2 Cu13 1_555 1_555
C29_2 O28 1_555 1_555
C30_2 N6_2 1_555 1_555
H10_2 C30_2 1_555 1_555
C31_2 C30_2 1_555 1_555
C32_2 C31_2 1_555 1_555
N2_2 C2_2 1_555 1_555
C1_2 C2_2 1_555 1_555
C3_2 C4_2 1_555 1_555
C5_2 C6_2 1_555 1_555
Cu3_2 O14_2 1_555 1_555
C15_2 C16_2 1_555 1_555
O19_2 C29_2 1_555 1_555
N6_2 C26_2 1_555 1_555
C29_2 C30_2 1_555 1_555
C7_2 H13_2 1_555 1_555
C7_2 H14_2 1_555 1_555
C10_2 H15_2 1_555 1_555
C10_2 H16_2 1_555 1_555
C8_2 H23_2 1_555 1_555
C8_2 H24_2 1_555 1_555
C22_2 H35_2 1_555 1_555
C22_2 H36_2 1_555 1_555
C32_2 H45_2 1_555 1_555
C32_2 H46_2 1_555 1_555
C31_2 H47_2 1_555 1_555
C31_2 H48_2 1_555 1_555
C12_2 S2_2 1_555 1_555
C36_2 S6_2 1_555 1_555
C12_2 H17_2 1_555 1_555
C12_2 H18_2 1_555 1_555
C11_2 H20_2 1_555 1_555
C11_2 H21_2 1_555 1_555
C36_2 H37_2 1_555 1_555
C36_2 H38_2 1_555 1_555
C35_2 H42_2 1_555 1_555
C35_2 H43_2 1_555 1_555

#END
