
###############################################################################
#
# This file contains modified crystal structure data generated from the
# MOF subset of the Cambridge Structural Database (CSD) v543 
# hosted by the Cambridge Crystallographic Data Centre (CCDC).
#
# This work is licensed under the Creative Commons
# Attribution-NonCommercial-ShareAlike 4.0 International License.
# To view a copy of this license, visit
# http://creativecommons.org/licenses/by-nc-sa/4.0/
# or send a letter to
# Creative Commons, PO Box 1866, Mountain View, CA 94042, USA.
#
# CIF created using the CSD Python API on 29 September 2022
# The structure has been converted into the P1 space group
# The structure has a 3D framework
# The original CSD entry ZEDROR is in the monoclinic crystal system
# The framework has been calculated to contain at least 10.0% void space
# The void calculation uses a probe of radius 1.32A, grid spacing 0.4
#
###############################################################################

data_ZEDROR
_chemical_formula_moiety         '(C108 H96 N16 O32 Zn8)n'
_symmetry_cell_setting           triclinic
_symmetry_space_group_name_H-M   'P 1'
_symmetry_Int_Tables_number      1
_space_group_name_Hall           'P 1'
loop_
_symmetry_equiv_pos_site_id
_symmetry_equiv_pos_as_xyz
1 x,y,z
_cell_length_a                   18.232(3)
_cell_length_b                   10.8471(17)
_cell_length_c                   18.894(3)
_cell_angle_alpha                90
_cell_angle_beta                 108.711(3)
_cell_angle_gamma                90
_cell_volume                     3539.08
loop_
_atom_site_label
_atom_site_type_symbol
_atom_site_fract_x
_atom_site_fract_y
_atom_site_fract_z
Zn1 Zn 0.31637(2) 0.19518(4) 0.02802(2)
Zn2 Zn 0.21126(2) 0.19397(4) 0.12507(2)
C9 C 0.4734(2) 0.1936(4) 0.0109(2)
H13 H 0.4956 0.2356 0.0570
O2 O 0.13529(17) 0.2155(3) 0.01860(16)
O5 O 0.21758(17) 0.0114(3) 0.10533(17)
O6 O 0.2971(2) 0.0124(3) 0.0375(2)
O9 O 0.38870(18) 0.1966(3) 0.13611(16)
O10 O 0.3076(2) 0.3788(3) 0.0372(2)
N5 N 0.13785(19) 0.1817(3) 0.18471(19)
O11 O 0.31507(17) 0.1855(3) 0.20923(17)
O12 O 0.24031(19) 0.3735(3) 0.11587(19)
C1 C 0.6080(2) 0.4286(4) 0.7011(3)
H1 H 0.6146 0.5076 0.6824
C2 C 0.5680(3) 0.4035(4) 0.7483(3)
H2 H 0.5411 0.4614 0.7686
C3 C 0.6160(2) 0.2313(4) 0.7223(2)
C4 C 0.6360(3) 0.0987(4) 0.7224(3)
H3 H 0.6675 0.0856 0.6897
H4 H 0.6652 0.0729 0.7733
H5 H 0.5883 0.0500 0.7041
C5 C 0.5477(3) 0.2140(5) 0.8175(3)
H6 H 0.5924 0.1691 0.8516
H7 H 0.5309 0.2759 0.8476
C6 C 0.4822(3) 0.1234(5) 0.7856(3)
H8 H 0.4329 0.1692 0.7653
H9 H 0.4914 0.0774 0.7440
C7 C 0.4753(3) 0.0329(4) 0.8446(3)
C8 C 0.5129(2) 0.1457(5) 0.9678(2)
H12 H 0.5674 0.1474 0.9778
C10 C 0.3893(2) 0.1114(4) 0.9151(2)
C11 C 0.3159(3) 0.0637(6) 0.8608(3)
H14 H 0.2722 0.0867 0.8776
H15 H 0.3087 0.0996 0.8114
C12 C 0.1473(2) 0.2194(4) 0.9578(2)
C13 C 0.0787(2) 0.2426(4) 0.8900(2)
C14 C 0.0087(2) 0.2767(4) 0.8983(2)
H17 H 0.0050 0.2877 0.9469
C18 C 0.0195(2) 0.2504(4) 0.7565(2)
H19 H 0.0236 0.2423 0.7078
C19 C 0.0834(2) 0.2307(4) 0.8186(2)
H20 H 0.1313 0.2085 0.8123
N1 N 0.63785(19) 0.3183(3) 0.68471(19)
N2 N 0.5733(2) 0.2787(3) 0.7615(2)
N3 N 0.4589(2) 0.0940(3) 0.9069(2)
N4 N 0.3959(2) 0.1716(3) 0.97712(19)
O1 O 0.21078(18) 0.2049(4) 0.94790(18)
Zn3 Zn 0.71126(2) 0.30603(4) 0.62507(2)
C20 C 0.2564(2) 0.9596(4) 0.0706(2)
C21 C 0.2572(2) 0.8221(4) 0.0698(2)
C22 C 0.2358(2) 0.7567(4) 0.1231(2)
H21 H 0.2170 0.7990 0.1578
C23 C 0.2419(2) 0.6299(4) 0.1256(2)
H22 H 0.2279 0.5852 0.1625
C24 C 0.2682(2) 0.5674(4) 0.0748(2)
C25 C 0.2727(2) 0.4292(4) 0.0767(2)
C26 C 0.2889(2) 0.6324(4) 0.0215(2)
C27 C 0.2837(2) 0.7592(4) 0.0186(2)
C15 C 0.9442(2) 0.2950(4) 0.8362(2)
H18 H 0.8961 0.3165 0.8425
C16 C 0.9492(2) 0.2822(4) 0.7653(2)
C17 C 0.8783(2) 0.3019(3) 0.6980(2)
O3 O 0.81507(17) 0.3145(3) 0.70923(17)
O4 O 0.88870(18) 0.3034(3) 0.63611(16)
Zn5 Zn 0.81637(2) 0.30482(4) 0.52802(2)
C1_2 C 0.1080(2) 0.0714(4) 0.2011(3)
C2_2 C 0.0680(3) 0.0965(4) 0.2483(3)
H2_2 H 0.0411 0.0386 0.2686
C3_2 C 0.1160(2) 0.2687(4) 0.2223(2)
C4_2 C 0.1360(3) 0.4013(4) 0.2224(3)
H3_2 H 0.1675 0.4144 0.1897
H4_2 H 0.1652 0.4271 0.2733
H5_2 H 0.0883 0.4500 0.2041
C5_2 C 0.0477(3) 0.2860(5) 0.3175(3)
H6_2 H 0.0924 0.3309 0.3516
H7_2 H 0.0309 0.2241 0.3476
H10 H 0.0243 0.5140 0.3640
C8_2 C 0.0129(2) 0.3543(5) 0.4678(2)
H12_2 H 0.0674 0.3526 0.4778
N2_2 N 0.0733(2) 0.2213(3) 0.2615(2)
C25_2 C 0.7727(2) 0.0708(4) 0.5767(2)
O7 O 0.74031(19) 0.1265(3) 0.61587(19)
O8 O 0.8076(2) 0.1212(3) 0.5372(2)
C6_2 C 0.9822(3) 0.3766(5) 0.2856(3)
H8_2 H 0.9329 0.3308 0.2653
H9_2 H 0.9914 0.4226 0.2440
C7_2 C 0.9753(3) 0.4671(4) 0.3446(3)
H11 H 0.9334 0.5266 0.3211
C9_2 C 0.9734(2) 0.3064(4) 0.5109(2)
H13_2 H 0.9956 0.2644 0.5570
C10_2 C 0.8893(2) 0.3886(4) 0.4151(2)
C11_2 C 0.8159(3) 0.4363(6) 0.3608(3)
H14_2 H 0.7722 0.4133 0.3776
H15_2 H 0.8087 0.4004 0.3114
H16 H 0.8187 0.5262 0.3578
C12_2 C 0.6473(2) 0.2806(4) 0.4578(2)
C13_2 C 0.5787(2) 0.2574(4) 0.3900(2)
C14_2 C 0.5087(2) 0.2233(4) 0.3983(2)
H17_2 H 0.5050 0.2123 0.4469
C15_2 C 0.4442(2) 0.2050(4) 0.3362(2)
H18_2 H 0.3961 0.1835 0.3425
C16_2 C 0.4492(2) 0.2178(4) 0.2653(2)
C17_2 C 0.3783(2) 0.1981(3) 0.1980(2)
C18_2 C 0.5195(2) 0.2496(4) 0.2565(2)
H19_2 H 0.5236 0.2577 0.2078
C19_2 C 0.5834(2) 0.2693(4) 0.3186(2)
H20_2 H 0.6313 0.2915 0.3123
C20_2 C 0.7564(2) 0.5404(4) 0.5706(2)
C21_2 C 0.7572(2) 0.6779(4) 0.5698(2)
C22_2 C 0.7358(2) 0.7433(4) 0.6231(2)
H21_2 H 0.7170 0.7010 0.6578
C23_2 C 0.7419(2) 0.8701(4) 0.6256(2)
H22_2 H 0.7279 0.9148 0.6625
C24_2 C 0.7682(2) 0.9326(4) 0.5748(2)
C26_2 C 0.7889(2) 0.8676(4) 0.5215(2)
H23 H 0.8069 0.9105 0.4865
C27_2 C 0.7837(2) 0.7408(4) 0.5186(2)
H24 H 0.7981 0.6966 0.4817
N3_2 N 0.9589(2) 0.4060(3) 0.4069(2)
N4_2 N 0.8959(2) 0.3284(3) 0.47712(19)
O1_2 O 0.71078(18) 0.2951(4) 0.44790(18)
O2_2 O 0.63529(17) 0.2845(3) 0.51860(16)
O5_2 O 0.71758(17) 0.4886(3) 0.60533(17)
O6_2 O 0.7971(2) 0.4876(3) 0.5375(2)
H10_2 H 0.5243 0.9860 0.8640
H11_2 H 0.4334 0.9734 0.8211
H16_2 H 0.3187 0.9738 0.8578
H23_2 H 0.3069 0.5895 0.9865
H24_2 H 0.2981 0.8034 0.9817
Zn1_2 Zn 0.18363(2) 0.69518(4) 0.47198(2)
Zn2_2 Zn 0.28874(2) 0.69397(4) 0.37493(2)
C6_3 C 0.0178(3) 0.6234(5) 0.7144(3)
H8_3 H 0.0671 0.6692 0.7347
H9_3 H 0.0086 0.5774 0.7560
C7_3 C 0.0247(3) 0.5329(4) 0.6554(3)
H11_3 H 0.0666 0.4734 0.6789
C9_3 C 0.0266(2) 0.6936(4) 0.4891(2)
H13_3 H 0.0044 0.7356 0.4430
C10_3 C 0.1107(2) 0.6114(4) 0.5849(2)
C11_3 C 0.1841(3) 0.5637(6) 0.6392(3)
H14_3 H 0.2278 0.5867 0.6224
H15_3 H 0.1913 0.5996 0.6886
H16_3 H 0.1813 0.4738 0.6422
C12_3 C 0.3527(2) 0.7194(4) 0.5422(2)
C13_3 C 0.4213(2) 0.7426(4) 0.6100(2)
C14_3 C 0.4913(2) 0.7767(4) 0.6017(2)
H17_3 H 0.4950 0.7877 0.5531
C15_3 C 0.5558(2) 0.7950(4) 0.6638(2)
H18_3 H 0.6039 0.8165 0.6575
C16_3 C 0.5508(2) 0.7822(4) 0.7347(2)
C17_3 C 0.6217(2) 0.8019(3) 0.8020(2)
C18_3 C 0.4805(2) 0.7504(4) 0.7435(2)
H19_3 H 0.4764 0.7423 0.7922
C19_3 C 0.4166(2) 0.7307(4) 0.6814(2)
H20_3 H 0.3687 0.7085 0.6877
C20_3 C 0.2436(2) 0.4596(4) 0.4294(2)
C21_3 C 0.2428(2) 0.3221(4) 0.4302(2)
C22_3 C 0.2642(2) 0.2567(4) 0.3769(2)
H21_3 H 0.2830 0.2990 0.3422
C23_3 C 0.2581(2) 0.1299(4) 0.3744(2)
H22_3 H 0.2721 0.0852 0.3375
C24_3 C 0.2318(2) 0.0674(4) 0.4252(2)
C26_3 C 0.2111(2) 0.1324(4) 0.4785(2)
H23_3 H 0.1931 0.0895 0.5135
C27_3 C 0.2163(2) 0.2592(4) 0.4814(2)
H24_3 H 0.2019 0.3034 0.5183
N3_3 N 0.0411(2) 0.5940(3) 0.5931(2)
N4_3 N 0.1041(2) 0.6716(3) 0.52288(19)
O1_3 O 0.28922(18) 0.7049(4) 0.55210(18)
O2_3 O 0.36471(17) 0.7155(3) 0.48140(16)
O3_2 O 0.68493(17) 0.8145(3) 0.79077(17)
O4_2 O 0.61130(18) 0.8034(3) 0.86389(16)
O5_3 O 0.28242(17) 0.5114(3) 0.39467(17)
O6_3 O 0.2029(2) 0.5124(3) 0.4625(2)
O9_2 O 0.11130(18) 0.6966(3) 0.36389(16)
O10_2 O 0.1924(2) 0.8788(3) 0.4628(2)
Zn4 Zn 0.78874(2) 0.80603(4) 0.87493(2)
Zn5_2 Zn 0.68363(2) 0.80482(4) 0.97198(2)
N5_2 N 0.36215(19) 0.6817(3) 0.31529(19)
O11_2 O 0.18493(17) 0.6855(3) 0.29077(17)
O12_2 O 0.25969(19) 0.8735(3) 0.38413(19)
C25_3 C 0.2273(2) 0.9292(4) 0.4233(2)
C1_3 C 0.8920(2) 0.9286(4) 0.7989(3)
C2_3 C 0.9320(3) 0.9035(4) 0.7517(3)
H2_3 H 0.9589 0.9614 0.7314
C3_3 C 0.8840(2) 0.7313(4) 0.7777(2)
C4_3 C 0.8640(3) 0.5987(4) 0.7776(3)
H3_3 H 0.8325 0.5856 0.8103
H4_3 H 0.8348 0.5729 0.7267
H5_3 H 0.9117 0.5500 0.7959
C5_3 C 0.9523(3) 0.7140(5) 0.6825(3)
H6_3 H 0.9076 0.6691 0.6484
H7_3 H 0.9691 0.7759 0.6524
H10_3 H 0.9757 0.4860 0.6360
C8_3 C 0.9871(2) 0.6457(5) 0.5322(2)
H12_3 H 0.9326 0.6474 0.5222
N1_2 N 0.86215(19) 0.8183(3) 0.81529(19)
N2_3 N 0.9267(2) 0.7787(3) 0.7385(2)
C15_4 C 0.0558(2) 0.7050(4) 0.1638(2)
H18_4 H 0.1039 0.6835 0.1575
C16_4 C 0.0508(2) 0.7178(4) 0.2347(2)
C17_4 C 0.1217(2) 0.6981(3) 0.3020(2)
C20_4 C 0.7436(2) 0.0404(4) 0.9294(2)
C21_4 C 0.7428(2) 0.1779(4) 0.9302(2)
C22_4 C 0.7642(2) 0.2433(4) 0.8769(2)
H21_4 H 0.7830 0.2010 0.8422
C23_4 C 0.7581(2) 0.3701(4) 0.8744(2)
H22_4 H 0.7721 0.4148 0.8375
C24_4 C 0.7318(2) 0.4326(4) 0.9252(2)
C25_4 C 0.7273(2) 0.5708(4) 0.9233(2)
C26_4 C 0.7111(2) 0.3676(4) 0.9785(2)
C27_4 C 0.7163(2) 0.2408(4) 0.9814(2)
O7_2 O 0.75969(19) 0.6265(3) 0.88413(19)
O8_2 O 0.6924(2) 0.6212(3) 0.9628(2)
C1_4 C 0.3920(2) 0.5714(4) 0.2989(3)
H1_2 H 0.3854 0.4924 0.3176
C2_4 C 0.4320(3) 0.5965(4) 0.2517(3)
H2_4 H 0.4589 0.5386 0.2314
C3_4 C 0.3840(2) 0.7687(4) 0.2777(2)
C4_4 C 0.3640(3) 0.9013(4) 0.2776(3)
H3_4 H 0.3325 0.9144 0.3103
H4_4 H 0.3348 0.9271 0.2267
H5_4 H 0.4117 0.9500 0.2959
C5_4 C 0.4523(3) 0.7860(5) 0.1825(3)
H6_4 H 0.4076 0.8309 0.1484
H7_4 H 0.4691 0.7241 0.1524
C6_4 C 0.5178(3) 0.8766(5) 0.2144(3)
H8_4 H 0.5671 0.8308 0.2347
H9_4 H 0.5086 0.9226 0.2560
C7_4 C 0.5247(3) 0.9671(4) 0.1554(3)
C8_4 C 0.4871(2) 0.8543(5) 0.0322(2)
H12_4 H 0.4326 0.8526 0.0222
C10_4 C 0.6107(2) 0.8886(4) 0.0849(2)
C11_4 C 0.6841(3) 0.9363(6) 0.1392(3)
H14_4 H 0.7278 0.9133 0.1224
H15_4 H 0.6913 0.9004 0.1886
C12_4 C 0.8527(2) 0.7806(4) 0.0422(2)
C13_4 C 0.9213(2) 0.7574(4) 0.1100(2)
C14_4 C 0.9913(2) 0.7233(4) 0.1017(2)
H17_4 H 0.9950 0.7123 0.0531
C18_4 C 0.9805(2) 0.7496(4) 0.2435(2)
H19_4 H 0.9764 0.7577 0.2922
C19_4 C 0.9166(2) 0.7693(4) 0.1814(2)
H20_4 H 0.8687 0.7915 0.1877
N2_4 N 0.4267(2) 0.7213(3) 0.2385(2)
N3_4 N 0.5411(2) 0.9060(3) 0.0931(2)
N4_4 N 0.6041(2) 0.8284(3) 0.02288(19)
O1_4 O 0.78922(18) 0.7951(4) 0.05210(18)
C9_4 C 0.5266(2) 0.8064(4) 0.9891(2)
H13_4 H 0.5044 0.7644 0.9430
O2_4 O 0.86471(17) 0.7845(3) 0.98140(16)
O5_4 O 0.78242(17) 0.9886(3) 0.89467(17)
O6_4 O 0.7029(2) 0.9876(3) 0.9625(2)
H1_3 H 0.8854 0.0076 0.8176
H10_4 H 0.4757 0.0140 0.1360
H11_4 H 0.5666 0.0266 0.1789
H16_4 H 0.6813 0.0262 0.1422
H23_4 H 0.6931 0.4105 0.0135
H24_4 H 0.7019 0.1966 0.0183
H1_4 H 0.1146 0.9924 0.1824
loop_
_geom_bond_atom_site_label_1
_geom_bond_atom_site_label_2
_geom_bond_site_symmetry_1
_geom_bond_site_symmetry_2
Zn2 O2 1_555 1_555
H13 C9 1_555 1_555
O5 Zn2 1_555 1_555
O6 Zn1 1_555 1_555
O9 Zn1 1_555 1_555
O10 Zn1 1_555 1_555
N5 Zn2 1_555 1_555
O11 Zn2 1_555 1_555
O12 Zn2 1_555 1_555
C1 H1 1_555 1_555
C2 C1 1_555 1_555
H2 C2 1_555 1_555
C3 C4 1_555 1_555
C4 H3 1_555 1_555
H4 C4 1_555 1_555
H5 C4 1_555 1_555
C5 H6 1_555 1_555
H7 C5 1_555 1_555
C6 C5 1_555 1_555
H8 C6 1_555 1_555
H9 C6 1_555 1_555
C7 C6 1_555 1_555
C8 H12 1_555 1_555
C10 C11 1_555 1_555
C11 H14 1_555 1_555
H15 C11 1_555 1_555
C12 C13 1_555 1_555
C13 C14 1_555 1_555
C14 H17 1_555 1_555
H19 C18 1_555 1_555
C19 C13 1_555 1_555
H20 C19 1_555 1_555
N1 C1 1_555 1_555
N2 C2 1_555 1_555
N3 C7 1_555 1_555
Zn3 N1 1_555 1_555
C3 N2 1_555 1_555
C3 N1 1_555 1_555
C5 N2 1_555 1_555
C8 N3 1_555 1_555
C10 N4 1_555 1_555
C10 N3 1_555 1_555
C12 O1 1_555 1_555
C18 C19 1_555 1_555
C20 C21 1_555 1_555
C21 C22 1_555 1_555
C22 H21 1_555 1_555
C23 C22 1_555 1_555
H22 C23 1_555 1_555
C24 C23 1_555 1_555
C25 C24 1_555 1_555
C26 C24 1_555 1_555
C27 C21 1_555 1_555
O12 C25 1_555 1_555
O10 C25 1_555 1_555
C26 C27 1_555 1_555
H18 C15 1_555 1_555
C16 C15 1_555 1_555
C17 C16 1_555 1_555
O3 C17 1_555 1_555
O4 C17 1_555 1_555
Zn3 O3 1_555 1_555
Zn5 O4 1_555 1_555
C2_2 C1_2 1_555 1_555
H2_2 C2_2 1_555 1_555
C3_2 C4_2 1_555 1_555
C4_2 H3_2 1_555 1_555
H4_2 C4_2 1_555 1_555
H5_2 C4_2 1_555 1_555
C5_2 H6_2 1_555 1_555
H7_2 C5_2 1_555 1_555
C8_2 H12_2 1_555 1_555
N5 C1_2 1_555 1_555
N2_2 C2_2 1_555 1_555
C3_2 N2_2 1_555 1_555
C3_2 N5 1_555 1_555
C5_2 N2_2 1_555 1_555
O7 C25_2 1_555 1_555
O8 C25_2 1_555 1_555
Zn3 O7 1_555 1_555
Zn5 O8 1_555 1_555
Zn5 N4_2 1_555 1_555
Zn3 O2_2 1_555 1_555
H8_2 C6_2 1_555 1_555
H9_2 C6_2 1_555 1_555
C7_2 C6_2 1_555 1_555
H11 C7_2 1_555 1_555
H13_2 C9_2 1_555 1_555
C10_2 C11_2 1_555 1_555
C11_2 H14_2 1_555 1_555
H15_2 C11_2 1_555 1_555
H16 C11_2 1_555 1_555
C12_2 C13_2 1_555 1_555
C13_2 C14_2 1_555 1_555
C14_2 H17_2 1_555 1_555
C15_2 C14_2 1_555 1_555
H18_2 C15_2 1_555 1_555
C16_2 C15_2 1_555 1_555
C17_2 C16_2 1_555 1_555
C18_2 C16_2 1_555 1_555
H19_2 C18_2 1_555 1_555
C19_2 C13_2 1_555 1_555
H20_2 C19_2 1_555 1_555
C20_2 C21_2 1_555 1_555
C21_2 C22_2 1_555 1_555
C22_2 H21_2 1_555 1_555
C23_2 C22_2 1_555 1_555
H22_2 C23_2 1_555 1_555
C24_2 C23_2 1_555 1_555
C26_2 C24_2 1_555 1_555
H23 C26_2 1_555 1_555
C27_2 C21_2 1_555 1_555
H24 C27_2 1_555 1_555
N3_2 C7_2 1_555 1_555
N4_2 C9_2 1_555 1_555
O1_2 Zn5 1_555 1_555
O2_2 C12_2 1_555 1_555
O11 C17_2 1_555 1_555
O9 C17_2 1_555 1_555
O5_2 Zn3 1_555 1_555
O6_2 Zn5 1_555 1_555
C10_2 N4_2 1_555 1_555
C10_2 N3_2 1_555 1_555
C12_2 O1_2 1_555 1_555
C18_2 C19_2 1_555 1_555
C20_2 O5_2 1_555 1_555
C20_2 O6_2 1_555 1_555
C26_2 C27_2 1_555 1_555
Zn1_2 N4_3 1_555 1_555
Zn2_2 O2_3 1_555 1_555
H8_3 C6_3 1_555 1_555
H9_3 C6_3 1_555 1_555
C7_3 C6_3 1_555 1_555
H11_3 C7_3 1_555 1_555
H13_3 C9_3 1_555 1_555
C10_3 C11_3 1_555 1_555
C11_3 H14_3 1_555 1_555
H15_3 C11_3 1_555 1_555
H16_3 C11_3 1_555 1_555
C12_3 C13_3 1_555 1_555
C13_3 C14_3 1_555 1_555
C14_3 H17_3 1_555 1_555
C15_3 C14_3 1_555 1_555
H18_3 C15_3 1_555 1_555
C16_3 C15_3 1_555 1_555
C17_3 C16_3 1_555 1_555
C18_3 C16_3 1_555 1_555
H19_3 C18_3 1_555 1_555
C19_3 C13_3 1_555 1_555
H20_3 C19_3 1_555 1_555
C20_3 C21_3 1_555 1_555
C21_3 C22_3 1_555 1_555
C22_3 H21_3 1_555 1_555
C23_3 C22_3 1_555 1_555
H22_3 C23_3 1_555 1_555
C24_3 C23_3 1_555 1_555
C26_3 C24_3 1_555 1_555
H23_3 C26_3 1_555 1_555
C27_3 C21_3 1_555 1_555
H24_3 C27_3 1_555 1_555
N3_3 C7_3 1_555 1_555
N4_3 C9_3 1_555 1_555
O1_3 Zn1_2 1_555 1_555
O2_3 C12_3 1_555 1_555
O3_2 C17_3 1_555 1_555
O4_2 C17_3 1_555 1_555
O5_3 Zn2_2 1_555 1_555
O6_3 Zn1_2 1_555 1_555
O9_2 Zn1_2 1_555 1_555
O10_2 Zn1_2 1_555 1_555
Zn4 O3_2 1_555 1_555
Zn5_2 O4_2 1_555 1_555
N5_2 Zn2_2 1_555 1_555
O11_2 Zn2_2 1_555 1_555
O12_2 Zn2_2 1_555 1_555
C10_3 N4_3 1_555 1_555
C10_3 N3_3 1_555 1_555
C12_3 O1_3 1_555 1_555
C18_3 C19_3 1_555 1_555
C20_3 O5_3 1_555 1_555
C20_3 O6_3 1_555 1_555
C26_3 C27_3 1_555 1_555
O12_2 C25_3 1_555 1_555
O10_2 C25_3 1_555 1_555
C2_3 C1_3 1_555 1_555
H2_3 C2_3 1_555 1_555
C3_3 C4_3 1_555 1_555
C4_3 H3_3 1_555 1_555
H4_3 C4_3 1_555 1_555
H5_3 C4_3 1_555 1_555
C5_3 H6_3 1_555 1_555
H7_3 C5_3 1_555 1_555
C8_3 H12_3 1_555 1_555
N1_2 C1_3 1_555 1_555
N2_3 C2_3 1_555 1_555
Zn4 N1_2 1_555 1_555
C3_3 N2_3 1_555 1_555
C3_3 N1_2 1_555 1_555
C5_3 N2_3 1_555 1_555
H18_4 C15_4 1_555 1_555
C16_4 C15_4 1_555 1_555
C17_4 C16_4 1_555 1_555
O11_2 C17_4 1_555 1_555
O9_2 C17_4 1_555 1_555
C20_4 C21_4 1_555 1_555
C21_4 C22_4 1_555 1_555
C22_4 H21_4 1_555 1_555
C23_4 C22_4 1_555 1_555
H22_4 C23_4 1_555 1_555
C24_4 C23_4 1_555 1_555
C25_4 C24_4 1_555 1_555
C26_4 C24_4 1_555 1_555
C27_4 C21_4 1_555 1_555
O7_2 C25_4 1_555 1_555
O8_2 C25_4 1_555 1_555
Zn4 O7_2 1_555 1_555
Zn5_2 O8_2 1_555 1_555
C26_4 C27_4 1_555 1_555
C1_4 H1_2 1_555 1_555
C2_4 C1_4 1_555 1_555
H2_4 C2_4 1_555 1_555
C3_4 C4_4 1_555 1_555
C4_4 H3_4 1_555 1_555
H4_4 C4_4 1_555 1_555
H5_4 C4_4 1_555 1_555
C5_4 H6_4 1_555 1_555
H7_4 C5_4 1_555 1_555
C6_4 C5_4 1_555 1_555
H8_4 C6_4 1_555 1_555
H9_4 C6_4 1_555 1_555
C7_4 C6_4 1_555 1_555
C8_4 H12_4 1_555 1_555
C10_4 C11_4 1_555 1_555
C11_4 H14_4 1_555 1_555
H15_4 C11_4 1_555 1_555
C12_4 C13_4 1_555 1_555
C13_4 C14_4 1_555 1_555
C14_4 H17_4 1_555 1_555
H19_4 C18_4 1_555 1_555
C19_4 C13_4 1_555 1_555
H20_4 C19_4 1_555 1_555
N5_2 C1_4 1_555 1_555
N2_4 C2_4 1_555 1_555
N3_4 C7_4 1_555 1_555
C3_4 N2_4 1_555 1_555
C3_4 N5_2 1_555 1_555
C5_4 N2_4 1_555 1_555
C8_4 N3_4 1_555 1_555
C10_4 N4_4 1_555 1_555
C10_4 N3_4 1_555 1_555
C12_4 O1_4 1_555 1_555
C18_4 C19_4 1_555 1_555
Zn4 O2_4 1_555 1_555
H13_4 C9_4 1_555 1_555
O5_4 Zn4 1_555 1_555
O6_4 Zn5_2 1_555 1_555

#END
