
###############################################################################
#
# This file contains modified crystal structure data generated from the
# MOF subset of the Cambridge Structural Database (CSD) v543 
# hosted by the Cambridge Crystallographic Data Centre (CCDC).
#
# This work is licensed under the Creative Commons
# Attribution-NonCommercial-ShareAlike 4.0 International License.
# To view a copy of this license, visit
# http://creativecommons.org/licenses/by-nc-sa/4.0/
# or send a letter to
# Creative Commons, PO Box 1866, Mountain View, CA 94042, USA.
#
# CIF created using the CSD Python API on 29 September 2022
# The structure has been converted into the P1 space group
# The structure has a 3D framework
# The original CSD entry ZEFDOG is in the triclinic crystal system
# The framework has been calculated to contain at least 10.0% void space
# The void calculation uses a probe of radius 1.32A, grid spacing 0.4
# H atom positions have been added when not included in the experimental data
# Generated hydrogen atom positions removed from atoms on special positions
#
###############################################################################

data_ZEFDOG
_chemical_formula_moiety         '(C102 H74 N2 O16 Tb2)n'
_symmetry_cell_setting           triclinic
_symmetry_space_group_name_H-M   'P 1'
_symmetry_Int_Tables_number      1
_space_group_name_Hall           'P 1'
loop_
_symmetry_equiv_pos_site_id
_symmetry_equiv_pos_as_xyz
1 x,y,z
_cell_length_a                   9.8575(6)
_cell_length_b                   11.7168(7)
_cell_length_c                   23.5010(13)
_cell_angle_alpha                104.317(2)
_cell_angle_beta                 94.047(2)
_cell_angle_gamma                100.349(2)
_cell_volume                     2568.34
loop_
_atom_site_label
_atom_site_type_symbol
_atom_site_fract_x
_atom_site_fract_y
_atom_site_fract_z
O10 O 0.3905(2) 0.41552(19) 0.44167(8)
O11 O 0.5812(2) 0.35719(19) 0.41052(8)
C52 C 0.4549(3) 0.3609(2) 0.40294(11)
C53 C 0.3769(3) 0.2967(3) 0.34281(11)
C54 C 0.2382(3) 0.2965(4) 0.33009(14)
H34 H 0.1896 0.3350 0.3602
C55 C 0.1688(3) 0.2409(4) 0.27399(14)
H35 H 0.0730 0.2412 0.2660
C56 C 0.2386(3) 0.1847(3) 0.22918(13)
C57 C 0.3792(3) 0.1846(3) 0.24221(14)
H36 H 0.4284 0.1461 0.2123
C58 C 0.4466(3) 0.2398(3) 0.29823(13)
H37 H 0.5421 0.2391 0.3066
C59 C 0.1696(3) 0.1297(3) 0.17024(13)
C60 C 0.1165(3) 0.0853(3) 0.12091(13)
C61 C 0.0561(3) 0.0392(3) 0.06030(12)
Tb4 Tb 0.73647(2) 0.47427(2) 0.49505(2)
Tb7 Tb 0.26353(2) 0.52573(2) 0.50495(2)
O4 O 0.1257(2) 0.54195(19) 0.42292(8)
C6 C 0.0083(3) 0.5481(3) 0.24797(13)
H3 H 0.0716 0.5842 0.2257
C7 C 0.0505(3) 0.5519(3) 0.30625(13)
H4 H 0.1427 0.5900 0.3236
H13 H 0.0731 0.7189 0.0131
C43 C 0.0770(3) 0.9424(2) 0.95667(12)
C44 C 0.1583(3) 0.8866(3) 0.91433(13)
H23 H 0.1230 0.8621 0.8736
C45 C 0.2856(3) 0.8682(3) 0.93152(14)
H24 H 0.3386 0.8317 0.9027
C46 C 0.3395(3) 0.9029(3) 0.99211(14)
C62 C 0.9230(3) 0.0576(2) 0.04333(12)
C63 C 0.8417(3) 0.1134(3) 0.08567(13)
H38 H 0.8770 0.1379 0.1264
C64 C 0.7144(3) 0.1318(3) 0.06848(14)
H39 H 0.6614 0.1683 0.0973
C65 C 0.6605(3) 0.0971(3) 0.00789(14)
C1 C 0.9991(3) 0.5064(3) 0.40274(11)
N1 N 0.7248(4) 0.1055(3) 0.38351(15)
C2 C 0.9576(3) 0.5000(3) 0.33921(11)
C3 C 0.8233(3) 0.4423(3) 0.31329(12)
H1 H 0.7600 0.4065 0.3356
O3 O 0.9056(2) 0.47278(19) 0.43207(8)
C4 C 0.7819(3) 0.4371(3) 0.25488(12)
H2 H 0.6908 0.3963 0.2372
C5 C 0.8733(3) 0.4914(3) 0.22194(12)
O5 O 0.6095(2) 0.58448(19) 0.55833(8)
O6 O 0.4188(2) 0.64281(19) 0.58948(8)
O7 O 0.9002(2) 0.66965(19) 0.53187(9)
C8 C 0.8248(3) 0.4894(3) 0.16265(13)
O8 O 0.5854(2) 0.3347(2) 0.53264(10)
C9 C 0.7769(3) 0.4828(3) 0.11341(13)
O9 O 0.7974(2) 0.2706(2) 0.46215(10)
C10 C 0.5899(3) 0.3840(3) 0.03253(12)
C11 C 0.7194(3) 0.4642(3) 0.05349(12)
C12 C 0.3841(3) 0.2562(3) 0.05025(14)
H7 H 0.3309 0.2234 0.0767
C13 C 0.5079(3) 0.3328(3) 0.07098(13)
H8 H 0.5405 0.3527 0.1119
C22 C 0.9199(3) 0.6074(3) 0.03637(14)
H14 H 0.9558 0.6279 0.0770
C23 C 0.7934(3) 0.5203(3) 0.01523(12)
C33 C 0.5451(3) 0.6391(2) 0.59706(11)
C34 C 0.6231(3) 0.7033(3) 0.65719(11)
C35 C 0.7618(3) 0.7035(4) 0.66991(14)
H19 H 0.8104 0.6650 0.6398
C36 C 0.8312(3) 0.7591(4) 0.72601(14)
H20 H 0.9270 0.7588 0.7340
C37 C 0.7614(3) 0.8153(3) 0.77082(13)
C38 C 0.6208(3) 0.8154(3) 0.75779(14)
H21 H 0.5716 0.8539 0.7877
C39 C 0.5534(3) 0.7602(3) 0.70177(13)
H22 H 0.4579 0.7609 0.6934
C40 C 0.8304(3) 0.8703(3) 0.82976(13)
C41 C 0.8835(3) 0.9147(3) 0.87909(13)
C42 C 0.9439(3) 0.9608(3) 0.93970(12)
C49 C 0.7176(4) 0.1780(4) 0.43644(19)
H27 H 0.6410 0.1541 0.4562
H30 H 0.5304 0.0220 0.3511
C51 C 0.8276(6) 0.1432(6) 0.3457(2)
H31 H 0.8185 0.0797 0.3088
H32 H 0.8113 0.2173 0.3368
H33 H 0.9214 0.1577 0.3665
O12 O 0.8539(2) 0.7408(2) 0.43137(9)
O13 O 0.6700(2) 0.60994(19) 0.44225(8)
C81 C 0.6664(3) 0.7753(3) 0.01084(15)
H50 H 0.7523 0.8303 0.0252
C82 C 0.5922(3) 0.7270(3) 0.04891(13)
H51 H 0.6272 0.7484 0.0897
C83 C 0.3868(3) 0.5908(3) 0.06715(12)
C84 C 0.4628(3) 0.6447(3) 0.02850(12)
C85 C 0.2596(3) 0.5076(3) 0.04575(12)
C86 C 0.1822(3) 0.4502(3) 0.08377(13)
H52 H 0.2151 0.4696 0.1247
C87 C 0.0620(3) 0.3682(3) 0.06225(15)
H53 H 0.0123 0.3303 0.0881
C88 C 0.0107(3) 0.3389(3) 0.00150(15)
C91 C 0.4424(3) 0.6143(3) 0.12774(13)
C92 C 0.4913(3) 0.6309(3) 0.17815(13)
C93 C 0.5501(3) 0.6461(3) 0.23770(12)
C94 C 0.6836(3) 0.7148(3) 0.25833(13)
H56 H 0.7342 0.7542 0.2333
C95 C 0.7425(3) 0.7256(3) 0.31515(12)
H57 H 0.8334 0.7724 0.3288
C96 C 0.6692(3) 0.6684(3) 0.35268(12)
C97 C 0.5358(3) 0.6013(3) 0.33216(13)
H58 H 0.4849 0.5628 0.3575
C98 C 0.4761(3) 0.5897(3) 0.27538(13)
H59 H 0.3848 0.5434 0.2620
C99 C 0.7378(3) 0.6754(3) 0.41308(12)
O20 O 0.8743(2) 0.45805(19) 0.57708(8)
O1 O 0.1461(2) 0.2592(2) 0.56863(9)
O2 O 0.3300(2) 0.39006(19) 0.55775(8)
C14 C 0.3336(3) 0.2247(3) 0.98916(15)
H9 H 0.2477 0.1697 0.9748
C15 C 0.4078(3) 0.2730(3) 0.95109(13)
H10 H 0.3728 0.2516 0.9103
C16 C 0.6132(3) 0.4092(3) 0.93285(12)
C17 C 0.5372(3) 0.3553(3) 0.97150(12)
C18 C 0.7404(3) 0.4924(3) 0.95425(12)
C19 C 0.8178(3) 0.5498(3) 0.91623(13)
H11 H 0.7849 0.5304 0.8753
C20 C 0.9380(3) 0.6318(3) 0.93775(15)
H12 H 0.9877 0.6697 0.9119
C21 C 0.9893(3) 0.6611(3) 0.99850(15)
C24 C 0.5576(3) 0.3857(3) 0.87226(13)
C25 C 0.5087(3) 0.3691(3) 0.82185(13)
C26 C 0.4499(3) 0.3539(3) 0.76230(12)
C27 C 0.3164(3) 0.2852(3) 0.74167(13)
H15 H 0.2658 0.2458 0.7667
C28 C 0.2575(3) 0.2744(3) 0.68485(12)
H16 H 0.1666 0.2276 0.6712
C29 C 0.3308(3) 0.3316(3) 0.64732(12)
C30 C 0.4642(3) 0.3987(3) 0.66784(13)
H17 H 0.5151 0.4372 0.6425
C31 C 0.5239(3) 0.4103(3) 0.72462(13)
H18 H 0.6152 0.4566 0.7380
C32 C 0.2622(3) 0.3246(3) 0.58692(12)
C68 C 0.0009(3) 0.4936(3) 0.59726(11)
N2 N 0.2752(4) 0.8945(3) 0.61649(15)
C69 C 0.0424(3) 0.5000(3) 0.66079(11)
C70 C 0.1767(3) 0.5577(3) 0.68671(12)
H42 H 0.2400 0.5935 0.6644
O14 O 0.0944(2) 0.52722(19) 0.56793(8)
C71 C 0.2181(3) 0.5629(3) 0.74512(12)
H43 H 0.3092 0.6037 0.7628
C72 C 0.1267(3) 0.5086(3) 0.77806(12)
O16 O 0.0998(2) 0.33035(19) 0.46813(9)
C75 C 0.1752(3) 0.5106(3) 0.83735(13)
O17 O 0.4146(2) 0.6653(2) 0.46736(10)
C76 C 0.2231(3) 0.5172(3) 0.88659(13)
O18 O 0.2026(2) 0.7294(2) 0.53785(10)
C77 C 0.4101(3) 0.6160(3) 0.96747(12)
C78 C 0.2806(3) 0.5358(3) 0.94651(12)
C79 C 0.6159(3) 0.7438(3) 0.94975(14)
H48 H 0.6691 0.7766 0.9233
C80 C 0.4921(3) 0.6672(3) 0.92902(13)
H49 H 0.4595 0.6473 0.8881
C89 C 0.0801(3) 0.3926(3) 0.96363(14)
H55 H 0.0442 0.3721 0.9230
C90 C 0.2066(3) 0.4797(3) 0.98477(12)
C100 C 0.2824(4) 0.8220(4) 0.56356(19)
H60 H 0.3590 0.8459 0.5438
H63 H 0.4696 0.9780 0.6489
C102 C 0.1724(6) 0.8568(6) 0.6543(2)
H64 H 0.1815 0.9203 0.6912
H65 H 0.1887 0.7827 0.6632
H66 H 0.0786 0.8423 0.6335
C73 C 0.9917(3) 0.4519(3) 0.75203(13)
H44 H 0.9284 0.4158 0.7743
C74 C 0.9495(3) 0.4481(3) 0.69375(13)
H45 H 0.8573 0.4100 0.6764
H54 H 0.9269 0.2811 0.9869
H25 H 0.4274 0.8877 0.0037
C47 C 0.2660(3) 0.9579(3) 0.03381(13)
H26 H 0.3040 0.9819 0.0743
C48 C 0.1331(3) 0.9801(2) 0.01765(12)
H40 H 0.5726 0.1123 0.9963
C66 C 0.7340(3) 0.0421(3) 0.96619(13)
H41 H 0.6960 0.0181 0.9257
C67 C 0.8669(3) 0.0199(2) 0.98235(12)
C101 C 0.3795(7) 0.0006(5) 0.6433(4)
H61 H 0.3550 0.0409 0.6818
H62 H 0.3853 0.0553 0.6177
C50 C 0.6205(7) 0.9994(5) 0.3567(4)
H28 H 0.6450 0.9591 0.3182
H29 H 0.6147 0.9447 0.3823
loop_
_geom_bond_atom_site_label_1
_geom_bond_atom_site_label_2
_geom_bond_site_symmetry_1
_geom_bond_site_symmetry_2
O10 C52 1_555 1_555
O11 C52 1_555 1_555
C52 C53 1_555 1_555
C53 C54 1_555 1_555
C54 H34 1_555 1_555
C55 C54 1_555 1_555
H35 C55 1_555 1_555
C56 C55 1_555 1_555
C57 C56 1_555 1_555
H36 C57 1_555 1_555
C58 C53 1_555 1_555
H37 C58 1_555 1_555
C59 C56 1_555 1_555
C60 C59 1_555 1_555
Tb4 O11 1_555 1_555
Tb7 O10 1_555 1_555
C57 C58 1_555 1_555
C60 C61 1_555 1_555
H3 C6 1_555 1_555
H4 C7 1_555 1_555
C44 C43 1_555 1_555
H23 C44 1_555 1_555
C45 C44 1_555 1_555
H24 C45 1_555 1_555
C46 C45 1_555 1_555
Tb7 O4 1_555 1_555
C6 C7 1_555 1_555
C63 C62 1_555 1_555
H38 C63 1_555 1_555
C64 C63 1_555 1_555
H39 C64 1_555 1_555
C65 C64 1_555 1_555
Tb4 O3 1_555 1_555
C1 C2 1_555 1_555
N1 C49 1_555 1_555
C2 C3 1_555 1_555
C3 H1 1_555 1_555
O3 C1 1_555 1_555
C4 C3 1_555 1_555
H2 C4 1_555 1_555
C5 C4 1_555 1_555
O5 Tb4 1_555 1_555
O6 C33 1_555 1_555
O7 Tb4 1_555 1_555
C8 C5 1_555 1_555
O8 Tb4 1_555 1_555
C9 C8 1_555 1_555
O9 Tb4 1_555 1_555
C10 C11 1_555 1_555
C11 C9 1_555 1_555
C12 H7 1_555 1_555
C13 C10 1_555 1_555
H8 C13 1_555 1_555
H14 C22 1_555 1_555
C23 C11 1_555 1_555
C33 O5 1_555 1_555
C34 C33 1_555 1_555
C35 C34 1_555 1_555
H19 C35 1_555 1_555
C36 C35 1_555 1_555
H20 C36 1_555 1_555
C37 C36 1_555 1_555
C38 C37 1_555 1_555
H21 C38 1_555 1_555
C39 C34 1_555 1_555
H22 C39 1_555 1_555
C40 C37 1_555 1_555
C41 C40 1_555 1_555
C42 C41 1_555 1_555
C49 O9 1_555 1_555
H27 C49 1_555 1_555
C51 N1 1_555 1_555
H31 C51 1_555 1_555
H32 C51 1_555 1_555
H33 C51 1_555 1_555
O12 C99 1_555 1_555
O13 Tb4 1_555 1_555
H50 C81 1_555 1_555
C82 C81 1_555 1_555
H51 C82 1_555 1_555
C83 C84 1_555 1_555
C85 C83 1_555 1_555
C86 C85 1_555 1_555
H52 C86 1_555 1_555
C87 C86 1_555 1_555
H53 C87 1_555 1_555
C88 C87 1_555 1_555
C91 C83 1_555 1_555
C92 C91 1_555 1_555
C93 C92 1_555 1_555
C94 C93 1_555 1_555
H56 C94 1_555 1_555
C95 C94 1_555 1_555
H57 C95 1_555 1_555
C96 C95 1_555 1_555
C97 C96 1_555 1_555
H58 C97 1_555 1_555
C98 C93 1_555 1_555
H59 C98 1_555 1_555
C99 O13 1_555 1_555
Tb7 O6 1_555 1_555
O20 Tb4 1_555 1_555
C12 C13 1_555 1_555
C22 C23 1_555 1_555
C38 C39 1_555 1_555
C82 C84 1_555 1_555
C96 C99 1_555 1_555
C97 C98 1_555 1_555
O1 C32 1_555 1_555
O2 C32 1_555 1_555
H9 C14 1_555 1_555
C15 C14 1_555 1_555
H10 C15 1_555 1_555
C16 C17 1_555 1_555
C18 C16 1_555 1_555
C19 C18 1_555 1_555
H11 C19 1_555 1_555
C20 C19 1_555 1_555
H12 C20 1_555 1_555
C21 C20 1_555 1_555
C24 C16 1_555 1_555
C25 C24 1_555 1_555
C26 C25 1_555 1_555
C27 C26 1_555 1_555
H15 C27 1_555 1_555
C28 C27 1_555 1_555
H16 C28 1_555 1_555
C29 C28 1_555 1_555
C30 C29 1_555 1_555
H17 C30 1_555 1_555
C31 C26 1_555 1_555
H18 C31 1_555 1_555
C32 C29 1_555 1_555
Tb7 O2 1_555 1_555
C68 C69 1_555 1_555
N2 C100 1_555 1_555
C69 C70 1_555 1_555
C70 H42 1_555 1_555
O14 Tb7 1_555 1_555
C71 C70 1_555 1_555
H43 C71 1_555 1_555
C72 C71 1_555 1_555
O16 Tb7 1_555 1_555
C75 C72 1_555 1_555
O17 Tb7 1_555 1_555
C76 C75 1_555 1_555
O18 Tb7 1_555 1_555
C77 C78 1_555 1_555
C78 C76 1_555 1_555
C79 H48 1_555 1_555
C80 C77 1_555 1_555
H49 C80 1_555 1_555
H55 C89 1_555 1_555
C90 C78 1_555 1_555
C100 O18 1_555 1_555
H60 C100 1_555 1_555
C102 N2 1_555 1_555
H64 C102 1_555 1_555
H65 C102 1_555 1_555
H66 C102 1_555 1_555
C15 C17 1_555 1_555
C30 C31 1_555 1_555
C68 O14 1_555 1_555
C79 C80 1_555 1_555
C89 C90 1_555 1_555
H44 C73 1_555 1_555
H45 C74 1_555 1_555
C73 C74 1_555 1_555
H26 C47 1_555 1_555
C47 C48 1_555 1_555
H41 C66 1_555 1_555
C66 C67 1_555 1_555
H61 C101 1_555 1_555
H62 C101 1_555 1_555
H28 C50 1_555 1_555
H29 C50 1_555 1_555

#END
