
###############################################################################
#
# This file contains modified crystal structure data generated from the
# MOF subset of the Cambridge Structural Database (CSD) v543 
# hosted by the Cambridge Crystallographic Data Centre (CCDC).
#
# This work is licensed under the Creative Commons
# Attribution-NonCommercial-ShareAlike 4.0 International License.
# To view a copy of this license, visit
# http://creativecommons.org/licenses/by-nc-sa/4.0/
# or send a letter to
# Creative Commons, PO Box 1866, Mountain View, CA 94042, USA.
#
# CIF created using the CSD Python API on 29 September 2022
# The structure has been converted into the P1 space group
# The structure has a 3D framework
# The original CSD entry ZEFDEW is in the triclinic crystal system
# The framework has been calculated to contain at least 10.0% void space
# The void calculation uses a probe of radius 1.32A, grid spacing 0.4
# H atom positions have been added when not included in the experimental data
#
###############################################################################

data_ZEFDEW
_chemical_formula_moiety         '(C102 H68 Ce2 N2 O14)n'
_symmetry_cell_setting           triclinic
_symmetry_space_group_name_H-M   'P 1'
_symmetry_Int_Tables_number      1
_space_group_name_Hall           'P 1'
loop_
_symmetry_equiv_pos_site_id
_symmetry_equiv_pos_as_xyz
1 x,y,z
_cell_length_a                   9.7058(5)
_cell_length_b                   10.4972(6)
_cell_length_c                   21.9362(12)
_cell_angle_alpha                93.447(2)
_cell_angle_beta                 100.108(2)
_cell_angle_gamma                98.529(2)
_cell_volume                     2167.38
loop_
_atom_site_label
_atom_site_type_symbol
_atom_site_fract_x
_atom_site_fract_y
_atom_site_fract_z
_atom_site_U_iso_or_equiv
_atom_site_thermal_displace_type
O3 O 0.17251(19) 0.57553(19) 0.08931(8) 0.0286 Uani
C13 C 0.1257(4) 0.7280(4) 0.63854(16) 0.0525 Uani
H7 H 0.1809 0.7470 0.6781 0.0630 Uiso
C14 C 0.1912(4) 0.7057(4) 0.58724(17) 0.0539 Uani
H8 H 0.2888 0.7078 0.5932 0.0650 Uiso
C15 C 0.1118(4) 0.6812(4) 0.52927(15) 0.0463 Uani
H9 H 0.1561 0.6666 0.4958 0.0550 Uiso
C26 C 0.0107(3) 0.6019(3) 0.29520(12) 0.0327 Uani
C27 C 0.1298(3) 0.6630(3) 0.27525(13) 0.0350 Uani
H14 H 0.1994 0.7184 0.3032 0.0420 Uiso
C28 C 0.1456(3) 0.6419(3) 0.21398(13) 0.0311 Uani
H15 H 0.2256 0.6835 0.2011 0.0370 Uiso
C29 C 0.0428(3) 0.5593(3) 0.17179(11) 0.0225 Uani
C32 C 0.0573(3) 0.5349(3) 0.10498(11) 0.0214 Uani
Ce8 Ce 0.28387(2) 0.53832(2) 0.99583(2) 0.0194 Uani
Ce1 Ce 0.71613(2) 0.46168(2) 0.00417(2) 0.0194 Uani
O7 O 0.7930(3) 0.2378(2) 0.00443(12) 0.0487 Uani
C51 C 0.676(3) 0.012(2) 0.0526(9) 0.6060 Uani
H31 H 0.7662 0.0298 0.0806 0.9050 Uiso
H32 H 0.6157 0.0700 0.0640 0.9050 Uiso
O18 O 0.6418(2) 0.3452(2) 0.09304(8) 0.0322 Uani
O21 O 0.95118(19) 0.4706(2) 0.06858(8) 0.0317 Uani
O24 O 0.6944(2) 0.6391(2) 0.08133(9) 0.0334 Uani
H65 H 0.88009 0.738118 0.0260466 . .
O1 O 0.5529(2) 0.5712(2) 0.93669(9) 0.0328 Uani
O2 O 0.3582(2) 0.6548(2) 0.90696(8) 0.0322 Uani
O5 O 0.5203(2) 0.3034(2) 0.94546(9) 0.0344 Uani
O6 O 0.3056(2) 0.3609(2) 0.91867(9) 0.0334 Uani
O8 O 0.8719(2) 0.6754(2) 0.98935(14) 0.0444 Uani
H1 H 0.923(5) 0.6662(11) 0.987(2) 0.0670 Uiso
N1 N 0.6997(10) 0.0305(5) 0.9847(4) 0.1831 Uani
C1 C 0.4741(3) 0.6250(3) 0.89762(12) 0.0243 Uani
C2 C 0.5176(3) 0.6514(3) 0.83676(12) 0.0256 Uani
C3 C 0.6263(4) 0.5947(4) 0.81911(15) 0.0477 Uani
H2 H 0.6736 0.5427 0.8456 0.0570 Uiso
C4 C 0.6647(4) 0.6151(4) 0.76217(16) 0.0557 Uani
H3 H 0.7383 0.5771 0.7510 0.0670 Uiso
C5 C 0.5953(3) 0.6912(3) 0.72165(13) 0.0330 Uani
C6 C 0.4871(3) 0.7487(3) 0.73957(13) 0.0362 Uani
H4 H 0.4402 0.8013 0.7133 0.0430 Uiso
C7 C 0.4488(3) 0.7277(3) 0.79663(13) 0.0337 Uani
H5 H 0.3753 0.7657 0.8080 0.0400 Uiso
C8 C 0.6383(3) 0.7046(3) 0.66254(14) 0.0385 Uani
C9 C 0.6833(3) 0.7014(3) 0.61578(14) 0.0372 Uani
C10 C 0.7476(3) 0.6900(3) 0.56182(13) 0.0332 Uani
C11 C 0.8961(3) 0.6957(3) 0.57080(13) 0.0329 Uani
C12 C 0.9840(4) 0.7222(3) 0.63078(14) 0.0443 Uani
H6 H 0.9427 0.7357 0.6653 0.0530 Uiso
C16 C 0.9625(3) 0.6772(3) 0.51838(13) 0.0338 Uani
C17 C 0.8781(3) 0.6546(3) 0.45833(13) 0.0338 Uani
C18 C 0.7295(3) 0.6496(3) 0.44918(13) 0.0339 Uani
C19 C 0.6411(4) 0.6255(3) 0.38926(14) 0.0434 Uani
H10 H 0.6820 0.6121 0.3546 0.0520 Uiso
C20 C 0.4997(4) 0.6218(4) 0.38146(16) 0.0509 Uani
H11 H 0.4446 0.6062 0.3417 0.0610 Uiso
C21 C 0.4345(4) 0.6413(4) 0.43332(17) 0.0505 Uani
H12 H 0.3369 0.6392 0.4275 0.0610 Uiso
C22 C 0.5136(4) 0.6630(3) 0.49132(16) 0.0438 Uani
H13 H 0.4692 0.6749 0.5250 0.0520 Uiso
C23 C 0.6631(3) 0.6679(3) 0.50173(13) 0.0332 Uani
C24 C 0.9416(3) 0.6377(3) 0.40444(14) 0.0390 Uani
C25 C 0.9832(3) 0.6244(3) 0.35704(13) 0.0392 Uani
C30 C 0.9249(3) 0.4967(3) 0.19177(13) 0.0325 Uani
H16 H 0.8560 0.4405 0.1639 0.0390 Uiso
C31 C 0.9092(3) 0.5172(3) 0.25284(13) 0.0390 Uani
H17 H 0.8301 0.4741 0.2658 0.0470 Uiso
C33 C 0.4060(3) 0.3048(3) 0.90805(12) 0.0271 Uani
C34 C 0.3912(3) 0.2329(3) 0.84491(13) 0.0295 Uani
C35 C 0.2724(4) 0.2290(4) 0.79942(14) 0.0442 Uani
H18 H 0.1965 0.2666 0.8084 0.0530 Uiso
C36 C 0.2648(4) 0.1694(4) 0.74046(16) 0.0535 Uani
H19 H 0.1841 0.1673 0.7102 0.0640 Uiso
C37 C 0.3769(4) 0.1129(3) 0.72646(14) 0.0407 Uani
C38 C 0.4940(4) 0.1137(4) 0.77288(17) 0.0554 Uani
H20 H 0.5687 0.0736 0.7645 0.0660 Uiso
C39 C 0.5011(4) 0.1735(4) 0.83129(16) 0.0503 Uani
H21 H 0.5809 0.1737 0.8618 0.0600 Uiso
C40 C 0.3812(4) 0.0622(3) 0.66453(15) 0.0472 Uani
C41 C 0.4044(4) 0.0325(3) 0.61445(15) 0.0452 Uani
C42 C 0.4508(4) 0.0116(3) 0.55657(14) 0.0391 Uani
C43 C 0.5968(4) 0.0172(3) 0.55756(14) 0.0384 Uani
C44 C 0.6985(4) 0.0354(3) 0.61383(16) 0.0492 Uani
H22 H 0.6678 0.0424 0.6516 0.0590 Uiso
C45 C 0.8376(5) 0.0426(4) 0.61381(19) 0.0602 Uani
H23 H 0.9018 0.0537 0.6513 0.0720 Uiso
C46 C 0.8867(5) 0.0336(5) 0.5572(2) 0.0695 Uani
H24 H 0.9834 0.0403 0.5575 0.0840 Uiso
C47 C 0.7935(4) 0.0151(4) 0.50229(17) 0.0570 Uani
H25 H 0.8275 0.0083 0.4653 0.0680 Uiso
C48 C 0.6467(4) 0.0061(3) 0.50017(14) 0.0397 Uani
C49 C 0.7559(7) 0.1431(6) 0.9797(4) 0.1228 Uani
H26 H 0.7722 0.1476 0.9393 0.1470 Uiso
C101 C 0.3370(18) 0.0855(9) 0.0524(8) 0.3714 Uani
H59 H 0.3796 0.1510 0.0296 0.5590 Uiso
H60 H 0.4033 0.0751 0.0890 0.5590 Uiso
H61 H 0.2535 0.1107 0.0641 0.5590 Uiso
O20 O 0.82749(19) 0.42447(19) 0.91069(8) 0.0286 Uani
C50 C 0.6630(18) 0.9145(9) 0.9476(8) 0.3714 Uani
H27 H 0.6204 0.8490 0.9704 0.5590 Uiso
H28 H 0.5967 0.9249 0.9110 0.5590 Uiso
H29 H 0.7465 0.8893 0.9359 0.5590 Uiso
O9 O 0.4797(2) 0.6966(2) 0.05454(9) 0.0344 Uani
C52 C 0.5940(3) 0.6952(3) 0.09195(12) 0.0271 Uani
C53 C 0.6088(3) 0.7671(3) 0.15509(13) 0.0295 Uani
C54 C 0.7276(4) 0.7710(4) 0.20058(14) 0.0442 Uani
H33 H 0.8035 0.7334 0.1916 0.0530 Uiso
C55 C 0.7352(4) 0.8306(4) 0.25954(16) 0.0535 Uani
H34 H 0.8159 0.8327 0.2898 0.0640 Uiso
C56 C 0.6231(4) 0.8871(3) 0.27354(14) 0.0407 Uani
C57 C 0.5060(4) 0.8863(4) 0.22712(17) 0.0554 Uani
H35 H 0.4313 0.9264 0.2355 0.0660 Uiso
C58 C 0.4989(4) 0.8265(4) 0.16871(16) 0.0503 Uani
H36 H 0.4191 0.8263 0.1382 0.0600 Uiso
C59 C 0.6188(4) 0.9378(3) 0.33547(15) 0.0472 Uani
C60 C 0.5956(4) 0.9675(3) 0.38555(15) 0.0452 Uani
C61 C 0.5492(4) 0.9884(3) 0.44343(14) 0.0391 Uani
C62 C 0.4032(4) 0.9828(3) 0.44244(14) 0.0384 Uani
C63 C 0.3015(4) 0.9646(3) 0.38617(16) 0.0492 Uani
H37 H 0.3322 0.9576 0.3484 0.0590 Uiso
C64 C 0.1624(5) 0.9574(4) 0.38619(19) 0.0602 Uani
H38 H 0.0982 0.9463 0.3487 0.0720 Uiso
C65 C 0.1133(5) 0.9664(5) 0.4428(2) 0.0695 Uani
H39 H 0.0166 0.9597 0.4425 0.0840 Uiso
C66 C 0.2065(4) 0.9849(4) 0.49771(17) 0.0570 Uani
H40 H 0.1725 0.9917 0.5347 0.0680 Uiso
C67 C 0.3533(4) 0.9939(3) 0.49983(14) 0.0397 Uani
O11 O 0.4471(2) 0.4288(2) 0.06331(9) 0.0328 Uani
O14 O 0.04882(19) 0.5294(2) 0.93142(8) 0.0317 Uani
O16 O 0.1281(2) 0.3246(2) 0.01065(14) 0.0444 Uani
H41 H 0.077(5) 0.3338(11) 0.013(2) 0.0670 Uiso
N2 N 0.3003(10) 0.9695(5) 0.0153(4) 0.1831 Uani
C68 C 0.5259(3) 0.3750(3) 0.10238(12) 0.0243 Uani
C69 C 0.4824(3) 0.3486(3) 0.16324(12) 0.0256 Uani
C70 C 0.3737(4) 0.4053(4) 0.18089(15) 0.0477 Uani
H42 H 0.3264 0.4573 0.1544 0.0570 Uiso
C71 C 0.3353(4) 0.3849(4) 0.23783(16) 0.0557 Uani
H43 H 0.2617 0.4229 0.2490 0.0670 Uiso
C72 C 0.4047(3) 0.3088(3) 0.27835(13) 0.0330 Uani
C73 C 0.5129(3) 0.2513(3) 0.26043(13) 0.0362 Uani
H44 H 0.5598 0.1987 0.2867 0.0430 Uiso
C74 C 0.5512(3) 0.2723(3) 0.20337(13) 0.0337 Uani
H45 H 0.6247 0.2343 0.1920 0.0400 Uiso
C75 C 0.3617(3) 0.2954(3) 0.33746(14) 0.0385 Uani
C76 C 0.3167(3) 0.2986(3) 0.38422(14) 0.0372 Uani
C77 C 0.2524(3) 0.3100(3) 0.43818(13) 0.0332 Uani
C78 C 0.1039(3) 0.3043(3) 0.42920(13) 0.0329 Uani
C79 C 0.0160(4) 0.2778(3) 0.36922(14) 0.0443 Uani
H46 H 0.0573 0.2643 0.3347 0.0530 Uiso
C83 C 0.0375(3) 0.3228(3) 0.48162(13) 0.0338 Uani
C84 C 0.1219(3) 0.3454(3) 0.54167(13) 0.0338 Uani
C85 C 0.2705(3) 0.3504(3) 0.55082(13) 0.0339 Uani
C86 C 0.3589(4) 0.3745(3) 0.61074(14) 0.0434 Uani
H50 H 0.3180 0.3879 0.6454 0.0520 Uiso
C87 C 0.5003(4) 0.3782(4) 0.61854(16) 0.0509 Uani
H51 H 0.5554 0.3938 0.6583 0.0610 Uiso
C88 C 0.5655(4) 0.3587(4) 0.56668(17) 0.0505 Uani
H52 H 0.6631 0.3608 0.5725 0.0610 Uiso
C89 C 0.4864(4) 0.3370(3) 0.50868(16) 0.0438 Uani
H53 H 0.5308 0.3251 0.4750 0.0520 Uiso
C90 C 0.3369(3) 0.3321(3) 0.49827(13) 0.0332 Uani
C91 C 0.0584(3) 0.3623(3) 0.59556(14) 0.0390 Uani
C92 C 0.0168(3) 0.3756(3) 0.64296(13) 0.0392 Uani
C97 C 0.0751(3) 0.5033(3) 0.80823(13) 0.0325 Uani
H56 H 0.1440 0.5595 0.8361 0.0390 Uiso
C98 C 0.0908(3) 0.4828(3) 0.74716(13) 0.0390 Uani
H57 H 0.1699 0.5259 0.7342 0.0470 Uiso
C100 C 0.2441(7) 0.8569(6) 0.0203(4) 0.1228 Uani
H58 H 0.2278 0.8524 0.0607 0.1470 Uiso
H66 H 0.172185 0.288096 0.0486335 . .
O15 O 0.2070(3) 0.7622(2) 0.99557(12) 0.0487 Uani
C102 C 0.324(3) 0.988(2) 0.9474(9) 0.6060 Uani
H63 H 0.2338 0.9702 0.9194 0.9050 Uiso
H64 H 0.3843 0.9300 0.9360 0.9050 Uiso
C80 C 0.8743(4) 0.2720(4) 0.36146(16) 0.0525 Uani
H47 H 0.8191 0.2530 0.3219 0.0630 Uiso
C81 C 0.8088(4) 0.2943(4) 0.41276(17) 0.0539 Uani
H48 H 0.7112 0.2922 0.4068 0.0650 Uiso
C82 C 0.8882(4) 0.3188(4) 0.47073(15) 0.0463 Uani
H49 H 0.8439 0.3334 0.5042 0.0550 Uiso
C93 C 0.9893(3) 0.3981(3) 0.70480(12) 0.0327 Uani
C94 C 0.8702(3) 0.3370(3) 0.72475(13) 0.0350 Uani
H54 H 0.8006 0.2816 0.6968 0.0420 Uiso
C95 C 0.8544(3) 0.3581(3) 0.78602(13) 0.0311 Uani
H55 H 0.7744 0.3165 0.7989 0.0370 Uiso
C96 C 0.9572(3) 0.4407(3) 0.82821(11) 0.0225 Uani
C99 C 0.9427(3) 0.4651(3) 0.89502(11) 0.0214 Uani
H66_2 H 0.827815 0.711904 0.951367 . .
H65_2 H 0.11991 0.261882 0.973953 . .
H62 H 0.3669 0.0757 0.9451 0.9050 Uiso
H30 H 0.6331 0.9243 0.0549 0.9050 Uiso
loop_
_atom_site_aniso_label
_atom_site_aniso_U_11
_atom_site_aniso_U_22
_atom_site_aniso_U_33
_atom_site_aniso_U_23
_atom_site_aniso_U_13
_atom_site_aniso_U_12
O3 0.0281 0.042 0.0175 -0.0011 0.0136 0.0015
C13 0.054 0.075 0.0272 0.0031 0.0071 0.007
C14 0.044 0.078 0.042 0.0033 0.0147 0.0098
C15 0.047 0.064 0.0329 0.0015 0.0205 0.0105
C26 0.0376 0.0491 0.0146 0.0015 0.0117 0.0099
C27 0.0366 0.0477 0.0186 -0.0074 0.0084 0.0002
C28 0.029 0.0417 0.0229 -0.002 0.0126 -0.0008
C29 0.0231 0.0313 0.0153 0.0023 0.0068 0.0076
C32 0.0218 0.0298 0.0147 0.0015 0.0058 0.0084
Ce8 0.01855 0.02918 0.01091 -0.00111 0.00581 0.00285
Ce1 0.01855 0.02918 0.01091 -0.00111 0.00581 0.00285
O7 0.0528 0.035 0.0605 0.0053 0.0152 0.0085
C51 0.96 0.53 0.232 0.13 0.18 -0.31
O18 0.0277 0.0502 0.0211 0.0071 0.0128 0.0031
O21 0.0233 0.0536 0.0164 -0.0032 0.0035 0.0036
O24 0.0298 0.0409 0.0282 -0.0148 0.0113 0.002
O1 0.0398 0.0393 0.0185 0.0083 0.0026 0.0045
O2 0.0277 0.0502 0.0211 0.0071 0.0128 0.0031
O5 0.0324 0.0386 0.0279 -0.0077 0.0024 0.0001
O6 0.0298 0.0409 0.0282 -0.0148 0.0113 0.002
O8 0.0329 0.0498 0.0549 0.0007 0.0208 0.0071
N1 0.284 0.049 0.175 0.008 -0.016 -0.036
C1 0.0245 0.03 0.0163 0.001 0.0053 -0.0039
C2 0.0267 0.033 0.0179 0.0036 0.0082 0.0021
C3 0.053 0.073 0.0326 0.0246 0.0214 0.0363
C4 0.062 0.086 0.041 0.0256 0.0345 0.045
C5 0.0391 0.0441 0.0203 0.0059 0.0162 0.0075
C6 0.039 0.0535 0.0218 0.0129 0.0119 0.0151
C7 0.0323 0.0506 0.0257 0.0114 0.0144 0.0171
C8 0.0455 0.0489 0.0258 0.0055 0.0181 0.0082
C9 0.0463 0.0416 0.0279 0.0043 0.0182 0.0066
C10 0.0465 0.0361 0.0217 0.0047 0.0194 0.0056
C11 0.0457 0.0353 0.021 0.0021 0.016 0.0054
C12 0.055 0.061 0.0201 0.0012 0.0155 0.0104
C16 0.0434 0.0384 0.0235 0.0019 0.0175 0.0057
C17 0.0448 0.0391 0.0208 0 0.0186 0.0041
C18 0.0469 0.0342 0.0231 0.0038 0.0158 0.0035
C19 0.053 0.053 0.0242 0.0012 0.0133 0.002
C20 0.055 0.062 0.0316 0.0062 0.0027 0.0016
C21 0.043 0.061 0.049 0.0103 0.0123 0.0062
C22 0.0434 0.055 0.0379 0.0071 0.0198 0.0085
C23 0.0435 0.0338 0.0259 0.005 0.0182 0.0028
C24 0.0461 0.0493 0.0238 -0.0015 0.0165 0.0044
C25 0.043 0.055 0.0208 -0.0013 0.0129 0.005
C30 0.0289 0.0487 0.0178 -0.0006 0.0072 -0.0024
C31 0.0345 0.06 0.024 0.0046 0.0167 -0.0016
C33 0.0293 0.0273 0.0228 -0.0061 0.0096 -0.0036
C34 0.0336 0.0306 0.0241 -0.0064 0.0115 0.0005
C35 0.0414 0.064 0.0284 -0.0132 0.0052 0.0207
C36 0.055 0.074 0.0296 -0.0158 0.001 0.0207
C37 0.057 0.0414 0.0255 -0.007 0.0196 0.0041
C38 0.051 0.077 0.042 -0.0172 0.0149 0.0246
C39 0.0412 0.077 0.0335 -0.0153 0.0055 0.022
C40 0.067 0.0458 0.031 -0.0065 0.0218 0.0054
C41 0.066 0.0412 0.0306 -0.0058 0.0198 0.0061
C42 0.064 0.0318 0.0244 -0.0052 0.0207 0.0053
C43 0.062 0.0293 0.0254 -0.0049 0.0161 0.0062
C44 0.07 0.046 0.0312 -0.0044 0.0134 0.0066
C45 0.068 0.063 0.045 -0.002 0.0012 0.01
C46 0.058 0.089 0.064 -0.004 0.016 0.019
C47 0.063 0.069 0.045 -0.003 0.0245 0.016
C48 0.06 0.0315 0.0313 -0.0038 0.0196 0.0089
C49 0.113 0.057 0.176 0.003 -0.028 0.01
C101 0.4 0.09 0.51 -0.129 -0.162 0.027
O20 0.0281 0.042 0.0175 -0.0011 0.0136 0.0015
C50 0.4 0.09 0.51 -0.129 -0.162 0.027
O9 0.0324 0.0386 0.0279 -0.0077 0.0024 0.0001
C52 0.0293 0.0273 0.0228 -0.0061 0.0096 -0.0036
C53 0.0336 0.0306 0.0241 -0.0064 0.0115 0.0005
C54 0.0414 0.064 0.0284 -0.0132 0.0052 0.0207
C55 0.055 0.074 0.0296 -0.0158 0.001 0.0207
C56 0.057 0.0414 0.0255 -0.007 0.0196 0.0041
C57 0.051 0.077 0.042 -0.0172 0.0149 0.0246
C58 0.0412 0.077 0.0335 -0.0153 0.0055 0.022
C59 0.067 0.0458 0.031 -0.0065 0.0218 0.0054
C60 0.066 0.0412 0.0306 -0.0058 0.0198 0.0061
C61 0.064 0.0318 0.0244 -0.0052 0.0207 0.0053
C62 0.062 0.0293 0.0254 -0.0049 0.0161 0.0062
C63 0.07 0.046 0.0312 -0.0044 0.0134 0.0066
C64 0.068 0.063 0.045 -0.002 0.0012 0.01
C65 0.058 0.089 0.064 -0.004 0.016 0.019
C66 0.063 0.069 0.045 -0.003 0.0245 0.016
C67 0.06 0.0315 0.0313 -0.0038 0.0196 0.0089
O11 0.0398 0.0393 0.0185 0.0083 0.0026 0.0045
O14 0.0233 0.0536 0.0164 -0.0032 0.0035 0.0036
O16 0.0329 0.0498 0.0549 0.0007 0.0208 0.0071
N2 0.284 0.049 0.175 0.008 -0.016 -0.036
C68 0.0245 0.03 0.0163 0.001 0.0053 -0.0039
C69 0.0267 0.033 0.0179 0.0036 0.0082 0.0021
C70 0.053 0.073 0.0326 0.0246 0.0214 0.0363
C71 0.062 0.086 0.041 0.0256 0.0345 0.045
C72 0.0391 0.0441 0.0203 0.0059 0.0162 0.0075
C73 0.039 0.0535 0.0218 0.0129 0.0119 0.0151
C74 0.0323 0.0506 0.0257 0.0114 0.0144 0.0171
C75 0.0455 0.0489 0.0258 0.0055 0.0181 0.0082
C76 0.0463 0.0416 0.0279 0.0043 0.0182 0.0066
C77 0.0465 0.0361 0.0217 0.0047 0.0194 0.0056
C78 0.0457 0.0353 0.021 0.0021 0.016 0.0054
C79 0.055 0.061 0.0201 0.0012 0.0155 0.0104
C83 0.0434 0.0384 0.0235 0.0019 0.0175 0.0057
C84 0.0448 0.0391 0.0208 0 0.0186 0.0041
C85 0.0469 0.0342 0.0231 0.0038 0.0158 0.0035
C86 0.053 0.053 0.0242 0.0012 0.0133 0.002
C87 0.055 0.062 0.0316 0.0062 0.0027 0.0016
C88 0.043 0.061 0.049 0.0103 0.0123 0.0062
C89 0.0434 0.055 0.0379 0.0071 0.0198 0.0085
C90 0.0435 0.0338 0.0259 0.005 0.0182 0.0028
C91 0.0461 0.0493 0.0238 -0.0015 0.0165 0.0044
C92 0.043 0.055 0.0208 -0.0013 0.0129 0.005
C97 0.0289 0.0487 0.0178 -0.0006 0.0072 -0.0024
C98 0.0345 0.06 0.024 0.0046 0.0167 -0.0016
C100 0.113 0.057 0.176 0.003 -0.028 0.01
O15 0.0528 0.035 0.0605 0.0053 0.0152 0.0085
C102 0.96 0.53 0.232 0.13 0.18 -0.31
C80 0.054 0.075 0.0272 0.0031 0.0071 0.007
C81 0.044 0.078 0.042 0.0033 0.0147 0.0098
C82 0.047 0.064 0.0329 0.0015 0.0205 0.0105
C93 0.0376 0.0491 0.0146 0.0015 0.0117 0.0099
C94 0.0366 0.0477 0.0186 -0.0074 0.0084 0.0002
C95 0.029 0.0417 0.0229 -0.002 0.0126 -0.0008
C96 0.0231 0.0313 0.0153 0.0023 0.0068 0.0076
C99 0.0218 0.0298 0.0147 0.0015 0.0058 0.0084
loop_
_geom_bond_atom_site_label_1
_geom_bond_atom_site_label_2
_geom_bond_site_symmetry_1
_geom_bond_site_symmetry_2
O3 C32 1_555 1_555
H7 C13 1_555 1_555
C14 C13 1_555 1_555
H8 C14 1_555 1_555
C15 C14 1_555 1_555
H9 C15 1_555 1_555
C27 C26 1_555 1_555
H14 C27 1_555 1_555
C28 C27 1_555 1_555
H15 C28 1_555 1_555
C29 C28 1_555 1_555
C32 C29 1_555 1_555
O7 Ce1 1_555 1_555
H31 C51 1_555 1_555
H32 C51 1_555 1_555
O18 Ce1 1_555 1_555
O21 Ce1 1_555 1_555
O24 Ce1 1_555 1_555
O1 C1 1_555 1_555
O2 C1 1_555 1_555
O6 C33 1_555 1_555
H1 O8 1_555 1_555
N1 C49 1_555 1_555
C1 C2 1_555 1_555
C2 C3 1_555 1_555
C3 H2 1_555 1_555
C4 C3 1_555 1_555
H3 C4 1_555 1_555
C5 C4 1_555 1_555
C6 C5 1_555 1_555
H4 C6 1_555 1_555
C7 C2 1_555 1_555
H5 C7 1_555 1_555
C8 C5 1_555 1_555
C9 C8 1_555 1_555
C10 C9 1_555 1_555
C11 C10 1_555 1_555
C12 C11 1_555 1_555
H6 C12 1_555 1_555
C16 C11 1_555 1_555
C17 C16 1_555 1_555
C18 C17 1_555 1_555
C19 C18 1_555 1_555
H10 C19 1_555 1_555
C20 C19 1_555 1_555
H11 C20 1_555 1_555
C21 C20 1_555 1_555
H12 C21 1_555 1_555
C22 C21 1_555 1_555
H13 C22 1_555 1_555
C23 C10 1_555 1_555
C24 C17 1_555 1_555
C25 C24 1_555 1_555
H16 C30 1_555 1_555
H17 C31 1_555 1_555
C33 O5 1_555 1_555
C34 C33 1_555 1_555
C35 C34 1_555 1_555
H18 C35 1_555 1_555
C36 C35 1_555 1_555
H19 C36 1_555 1_555
C37 C36 1_555 1_555
C38 C37 1_555 1_555
H20 C38 1_555 1_555
C39 C34 1_555 1_555
H21 C39 1_555 1_555
C40 C37 1_555 1_555
C41 C40 1_555 1_555
C42 C41 1_555 1_555
C43 C42 1_555 1_555
C44 C43 1_555 1_555
H22 C44 1_555 1_555
C45 C44 1_555 1_555
H23 C45 1_555 1_555
C46 C45 1_555 1_555
H24 C46 1_555 1_555
C47 C46 1_555 1_555
H25 C47 1_555 1_555
C48 C43 1_555 1_555
H26 C49 1_555 1_555
H59 C101 1_555 1_555
H60 C101 1_555 1_555
H61 C101 1_555 1_555
Ce8 O2 1_555 1_555
O6 Ce8 1_555 1_555
C6 C7 1_555 1_555
C18 C23 1_555 1_555
C22 C23 1_555 1_555
C30 C31 1_555 1_555
C38 C39 1_555 1_555
C47 C48 1_555 1_555
H27 C50 1_555 1_555
H28 C50 1_555 1_555
H29 C50 1_555 1_555
O9 C52 1_555 1_555
O24 C52 1_555 1_555
C52 C53 1_555 1_555
C53 C54 1_555 1_555
C54 H33 1_555 1_555
C55 C54 1_555 1_555
H34 C55 1_555 1_555
C56 C55 1_555 1_555
C57 C56 1_555 1_555
H35 C57 1_555 1_555
C58 C53 1_555 1_555
H36 C58 1_555 1_555
C59 C56 1_555 1_555
C60 C59 1_555 1_555
C62 C61 1_555 1_555
C63 C62 1_555 1_555
H37 C63 1_555 1_555
C64 C63 1_555 1_555
H38 C64 1_555 1_555
C65 C64 1_555 1_555
H39 C65 1_555 1_555
C66 C65 1_555 1_555
H40 C66 1_555 1_555
O18 C68 1_555 1_555
H41 O16 1_555 1_555
N2 C100 1_555 1_555
C68 O11 1_555 1_555
C69 C68 1_555 1_555
C70 C69 1_555 1_555
H42 C70 1_555 1_555
C71 C70 1_555 1_555
H43 C71 1_555 1_555
C72 C71 1_555 1_555
C73 C72 1_555 1_555
H44 C73 1_555 1_555
C74 C69 1_555 1_555
H45 C74 1_555 1_555
C75 C72 1_555 1_555
C76 C75 1_555 1_555
C77 C76 1_555 1_555
C78 C77 1_555 1_555
C79 C78 1_555 1_555
H46 C79 1_555 1_555
C83 C78 1_555 1_555
C84 C83 1_555 1_555
C85 C84 1_555 1_555
C86 C85 1_555 1_555
H50 C86 1_555 1_555
C87 C86 1_555 1_555
H51 C87 1_555 1_555
C88 C87 1_555 1_555
H52 C88 1_555 1_555
C89 C88 1_555 1_555
H53 C89 1_555 1_555
C90 C77 1_555 1_555
C91 C84 1_555 1_555
C92 C91 1_555 1_555
H56 C97 1_555 1_555
H57 C98 1_555 1_555
H58 C100 1_555 1_555
Ce8 O14 1_555 1_555
C57 C58 1_555 1_555
C60 C61 1_555 1_555
C62 C67 1_555 1_555
C66 C67 1_555 1_555
C73 C74 1_555 1_555
C85 C90 1_555 1_555
C89 C90 1_555 1_555
C97 C98 1_555 1_555
O16 H66 1_555 1_555
O15 Ce8 1_555 1_555
H63 C102 1_555 1_555
H64 C102 1_555 1_555
O20 C99 1_555 1_555
H47 C80 1_555 1_555
C81 C80 1_555 1_555
H48 C81 1_555 1_555
C82 C81 1_555 1_555
H49 C82 1_555 1_555
C94 C93 1_555 1_555
H54 C94 1_555 1_555
C95 C94 1_555 1_555
H55 C95 1_555 1_555
C96 C95 1_555 1_555
C99 C96 1_555 1_555
O8 H66_2 1_555 1_555

#END
