
###############################################################################
#
# This file contains modified crystal structure data generated from the
# MOF subset of the Cambridge Structural Database (CSD) v543 
# hosted by the Cambridge Crystallographic Data Centre (CCDC).
#
# This work is licensed under the Creative Commons
# Attribution-NonCommercial-ShareAlike 4.0 International License.
# To view a copy of this license, visit
# http://creativecommons.org/licenses/by-nc-sa/4.0/
# or send a letter to
# Creative Commons, PO Box 1866, Mountain View, CA 94042, USA.
#
# CIF created using the CSD Python API on 29 September 2022
# The structure has been converted into the P1 space group
# The structure has a 3D framework
# The original CSD entry ZEFDIA is in the triclinic crystal system
# The framework has been calculated to contain at least 10.0% void space
# The void calculation uses a probe of radius 1.32A, grid spacing 0.4
# H atom positions have been added when not included in the experimental data
# Generated hydrogen atom positions removed from atoms on special positions
#
###############################################################################

data_ZEFDIA
_chemical_formula_moiety         '(C102 H74 Dy2 N2 O16)n'
_symmetry_cell_setting           triclinic
_symmetry_space_group_name_H-M   'P 1'
_symmetry_Int_Tables_number      1
_space_group_name_Hall           'P 1'
loop_
_symmetry_equiv_pos_site_id
_symmetry_equiv_pos_as_xyz
1 x,y,z
_cell_length_a                   9.925(2)
_cell_length_b                   11.911(2)
_cell_length_c                   23.532(5)
_cell_angle_alpha                104.27(3)
_cell_angle_beta                 94.69(3)
_cell_angle_gamma                100.47(3)
_cell_volume                     2627.67
loop_
_atom_site_label
_atom_site_type_symbol
_atom_site_fract_x
_atom_site_fract_y
_atom_site_fract_z
_atom_site_U_iso_or_equiv
_atom_site_thermal_displace_type
O10 O 0.3863(2) 0.4159(2) 0.44220(9) 0.0294 Uani
O11 O 0.5771(2) 0.3635(2) 0.41252(9) 0.0313 Uani
C52 C 0.4515(3) 0.3657(3) 0.40416(12) 0.0221 Uani
C53 C 0.3756(3) 0.3022(3) 0.34321(13) 0.0266 Uani
C54 C 0.2389(4) 0.3016(4) 0.32923(16) 0.0520 Uani
H34 H 0.1910 0.3385 0.3582 0.0630 Uiso
C55 C 0.1710(4) 0.2470(5) 0.27267(17) 0.0590 Uani
H35 H 0.0780 0.2474 0.2640 0.0710 Uiso
C56 C 0.2400(4) 0.1920(3) 0.22904(14) 0.0374 Uani
C57 C 0.3787(4) 0.1920(4) 0.24319(17) 0.0567 Uani
H36 H 0.4272 0.1555 0.2144 0.0680 Uiso
C58 C 0.4445(4) 0.2462(4) 0.30006(16) 0.0469 Uani
H37 H 0.5370 0.2448 0.3093 0.0560 Uiso
C59 C 0.1717(4) 0.1358(4) 0.16992(15) 0.0404 Uani
C60 C 0.1186(4) 0.0898(3) 0.12047(14) 0.0339 Uani
C61 C 0.0572(3) 0.0417(3) 0.06006(13) 0.0273 Uani
Dy4 Dy 0.73746(2) 0.47707(2) 0.49484(2) 0.0192 Uani
Dy7 Dy 0.26254(2) 0.52293(2) 0.50516(2) 0.0192 Uani
O2 O 0.1228(2) 0.5401(2) 0.42434(9) 0.0309 Uani
C3 C 0.0491(4) 0.5486(4) 0.30720(15) 0.0375 Uani
H3 H 0.1393 0.5846 0.3245 0.0450 Uiso
C4 C 0.0082(4) 0.5447(4) 0.24907(16) 0.0451 Uani
H4 H 0.0707 0.5789 0.2277 0.0540 Uiso
H13 H 0.0671 0.7145 0.0140 0.0600 Uiso
C64 C 0.3360(4) 0.9040(4) 0.99412(18) 0.0438 Uani
C65 C 0.2809(4) 0.8671(4) 0.93381(18) 0.0471 Uani
H40 H 0.3315 0.8305 0.9060 0.0570 Uiso
C66 C 0.1549(4) 0.8846(3) 0.91609(16) 0.0387 Uani
H41 H 0.1197 0.8589 0.8761 0.0460 Uiso
C67 C 0.0754(3) 0.9415(3) 0.95731(14) 0.0276 Uani
C47 C 0.6640(4) 0.0960(4) 0.00588(18) 0.0438 Uani
C48 C 0.7191(4) 0.1329(4) 0.06619(18) 0.0471 Uani
H29 H 0.6685 0.1695 0.0940 0.0570 Uiso
C49 C 0.8451(4) 0.1154(3) 0.08391(16) 0.0387 Uani
H30 H 0.8803 0.1411 0.1239 0.0460 Uiso
C50 C 0.9246(3) 0.0585(3) 0.04269(14) 0.0276 Uani
O1 O 0.9034(2) 0.4746(2) 0.43246(9) 0.0312 Uani
O5 O 0.7949(3) 0.2758(2) 0.46151(12) 0.0439 Uani
O6 O 0.5895(2) 0.3402(2) 0.53402(13) 0.0373 Uani
O7 O 0.8997(2) 0.6691(2) 0.53190(11) 0.0306 Uani
O8 O 0.6137(2) 0.5841(2) 0.55780(9) 0.0294 Uani
O9 O 0.4229(2) 0.6365(2) 0.58748(9) 0.0313 Uani
N1 N 0.7307(5) 0.1045(5) 0.3865(3) 0.1047 Uani
C1 C 0.9970(3) 0.5061(3) 0.40385(13) 0.0219 Uani
C2 C 0.9567(3) 0.4992(3) 0.34000(13) 0.0248 Uani
C5 C 0.8739(4) 0.4900(3) 0.22222(14) 0.0356 Uani
C6 C 0.7826(4) 0.4387(4) 0.25502(15) 0.0380 Uani
H5 H 0.6933 0.4004 0.2374 0.0460 Uiso
C7 C 0.8228(3) 0.4440(3) 0.31325(14) 0.0314 Uani
H6 H 0.7600 0.4105 0.3348 0.0380 Uiso
C8 C 0.8262(4) 0.4877(4) 0.16292(15) 0.0402 Uani
C9 C 0.7783(4) 0.4820(3) 0.11354(14) 0.0346 Uani
C10 C 0.7199(3) 0.4628(3) 0.05363(13) 0.0280 Uani
C11 C 0.5909(3) 0.3840(3) 0.03244(13) 0.0269 Uani
C12 C 0.5099(4) 0.3328(3) 0.07050(16) 0.0351 Uani
H7 H 0.5420 0.3520 0.1107 0.0420 Uiso
C13 C 0.3872(4) 0.2570(3) 0.04940(18) 0.0422 Uani
H8 H 0.3360 0.2247 0.0751 0.0500 Uiso
C22 C 0.9183(4) 0.6051(3) 0.03654(17) 0.0401 Uani
H14 H 0.9547 0.6245 0.0763 0.0480 Uiso
C23 C 0.7925(3) 0.5196(3) 0.01556(14) 0.0291 Uani
C33 C 0.7223(7) 0.1853(6) 0.4345(3) 0.0972 Uani
H19 H 0.6415 0.1673 0.4508 0.1160 Uiso
C34 C 0.8273(14) 0.1371(13) 0.3445(5) 0.2403 Uani
H20 H 0.9073 0.1034 0.3483 0.3620 Uiso
H21 H 0.8554 0.2218 0.3537 0.3620 Uiso
H22 H 0.7811 0.1071 0.3047 0.3620 Uiso
C35 C 0.5485(3) 0.6343(3) 0.59584(12) 0.0221 Uani
C36 C 0.6244(3) 0.6978(3) 0.65679(13) 0.0266 Uani
C37 C 0.7611(4) 0.6984(4) 0.67077(16) 0.0520 Uani
H23 H 0.8090 0.6615 0.6418 0.0630 Uiso
C38 C 0.8290(4) 0.7530(5) 0.72733(17) 0.0590 Uani
H24 H 0.9220 0.7526 0.7360 0.0710 Uiso
C39 C 0.7600(4) 0.8080(3) 0.77096(14) 0.0374 Uani
C40 C 0.6213(4) 0.8080(4) 0.75681(17) 0.0567 Uani
H25 H 0.5728 0.8445 0.7856 0.0680 Uiso
C41 C 0.5555(4) 0.7538(4) 0.69994(16) 0.0469 Uani
H26 H 0.4630 0.7552 0.6907 0.0560 Uiso
C42 C 0.8283(4) 0.8642(4) 0.83008(15) 0.0404 Uani
C43 C 0.8814(4) 0.9102(3) 0.87953(14) 0.0339 Uani
C44 C 0.9428(3) 0.9583(3) 0.93994(13) 0.0273 Uani
H33 H 0.5424 0.0116 0.3657 0.4820 Uiso
O14 O 0.8501(3) 0.7432(2) 0.43317(11) 0.0434 Uani
O15 O 0.6701(2) 0.6100(2) 0.44233(9) 0.0296 Uani
C81 C 0.6637(4) 0.7734(4) 0.01126(19) 0.0449 Uani
H50 H 0.7473 0.8269 0.0255 0.0540 Uiso
C82 C 0.5916(4) 0.7252(3) 0.04883(17) 0.0388 Uani
H51 H 0.6270 0.7456 0.0887 0.0470 Uiso
C83 C 0.4625(3) 0.6439(3) 0.02869(14) 0.0274 Uani
C84 C 0.3878(3) 0.5899(3) 0.06704(13) 0.0282 Uani
C85 C 0.2613(3) 0.5084(3) 0.04546(14) 0.0288 Uani
C86 C 0.1856(4) 0.4509(4) 0.08289(17) 0.0401 Uani
H52 H 0.2185 0.4695 0.1229 0.0480 Uiso
C87 C 0.0668(4) 0.3700(4) 0.0614(2) 0.0477 Uani
H53 H 0.0194 0.3330 0.0865 0.0570 Uiso
C88 C 0.0145(4) 0.3416(4) 0.0006(2) 0.0496 Uani
C91 C 0.4443(4) 0.6145(3) 0.12765(14) 0.0347 Uani
C92 C 0.4922(4) 0.6306(4) 0.17793(15) 0.0400 Uani
C93 C 0.5509(4) 0.6466(3) 0.23779(14) 0.0367 Uani
C94 C 0.4776(4) 0.5910(4) 0.27483(15) 0.0425 Uani
H56 H 0.3887 0.5461 0.2611 0.0510 Uiso
C95 C 0.5363(4) 0.6020(3) 0.33179(15) 0.0361 Uani
H57 H 0.4867 0.5640 0.3560 0.0440 Uiso
C96 C 0.6684(3) 0.6692(3) 0.35320(13) 0.0270 Uani
C97 C 0.7408(4) 0.7258(3) 0.31636(15) 0.0350 Uani
H58 H 0.8292 0.7715 0.3303 0.0420 Uiso
C98 C 0.6835(4) 0.7150(4) 0.25949(15) 0.0397 Uani
H59 H 0.7332 0.7534 0.2354 0.0480 Uiso
C99 C 0.7357(3) 0.6759(3) 0.41414(13) 0.0276 Uani
O20 O 0.8772(2) 0.4599(2) 0.57566(9) 0.0309 Uani
O3 O 0.1499(3) 0.2568(2) 0.56683(11) 0.0434 Uani
O4 O 0.3299(2) 0.3900(2) 0.55767(9) 0.0296 Uani
C14 C 0.3363(4) 0.2266(4) 0.98874(19) 0.0449 Uani
H9 H 0.2527 0.1731 0.9745 0.0540 Uiso
C15 C 0.4084(4) 0.2748(3) 0.95117(17) 0.0388 Uani
H10 H 0.3730 0.2544 0.9113 0.0470 Uiso
C16 C 0.5375(3) 0.3561(3) 0.97131(14) 0.0274 Uani
C17 C 0.6122(3) 0.4101(3) 0.93296(13) 0.0282 Uani
C18 C 0.7387(3) 0.4916(3) 0.95454(14) 0.0288 Uani
C19 C 0.8144(4) 0.5491(4) 0.91711(17) 0.0401 Uani
H11 H 0.7815 0.5305 0.8771 0.0480 Uiso
C20 C 0.9332(4) 0.6300(4) 0.9386(2) 0.0477 Uani
H12 H 0.9806 0.6670 0.9135 0.0570 Uiso
C21 C 0.9855(4) 0.6584(4) 0.9994(2) 0.0496 Uani
C24 C 0.5557(4) 0.3855(3) 0.87235(14) 0.0347 Uani
C25 C 0.5078(4) 0.3694(4) 0.82207(15) 0.0400 Uani
C26 C 0.4491(4) 0.3534(3) 0.76221(14) 0.0367 Uani
C27 C 0.5224(4) 0.4090(4) 0.72517(15) 0.0425 Uani
H15 H 0.6113 0.4539 0.7389 0.0510 Uiso
C28 C 0.4637(4) 0.3980(3) 0.66821(15) 0.0361 Uani
H16 H 0.5133 0.4360 0.6440 0.0440 Uiso
C29 C 0.3316(3) 0.3308(3) 0.64680(13) 0.0270 Uani
C30 C 0.2592(4) 0.2742(3) 0.68364(15) 0.0350 Uani
H17 H 0.1708 0.2285 0.6697 0.0420 Uiso
C31 C 0.3165(4) 0.2850(4) 0.74051(15) 0.0397 Uani
H18 H 0.2668 0.2466 0.7646 0.0480 Uiso
C32 C 0.2643(3) 0.3241(3) 0.58586(13) 0.0276 Uani
O12 O 0.0966(2) 0.5254(2) 0.56754(9) 0.0312 Uani
O16 O 0.2051(3) 0.7242(2) 0.53849(12) 0.0439 Uani
O17 O 0.4105(2) 0.6598(2) 0.46598(13) 0.0373 Uani
O18 O 0.1003(2) 0.3309(2) 0.46810(11) 0.0306 Uani
N2 N 0.2693(5) 0.8955(5) 0.6135(3) 0.1047 Uani
C68 C 0.0030(3) 0.4939(3) 0.59615(13) 0.0219 Uani
C69 C 0.0433(3) 0.5008(3) 0.66000(13) 0.0248 Uani
C72 C 0.1261(4) 0.5100(3) 0.77778(14) 0.0356 Uani
C73 C 0.2174(4) 0.5613(4) 0.74498(15) 0.0380 Uani
H46 H 0.3067 0.5996 0.7626 0.0460 Uiso
C74 C 0.1772(3) 0.5560(3) 0.68675(14) 0.0314 Uani
H47 H 0.2400 0.5895 0.6652 0.0380 Uiso
C75 C 0.1738(4) 0.5123(4) 0.83708(15) 0.0402 Uani
C76 C 0.2217(4) 0.5180(3) 0.88646(14) 0.0346 Uani
C77 C 0.2801(3) 0.5372(3) 0.94637(13) 0.0280 Uani
C78 C 0.4091(3) 0.6160(3) 0.96756(13) 0.0269 Uani
C79 C 0.4901(4) 0.6672(3) 0.92950(16) 0.0351 Uani
H48 H 0.4580 0.6480 0.8893 0.0420 Uiso
C80 C 0.6128(4) 0.7430(3) 0.95060(18) 0.0422 Uani
H49 H 0.6640 0.7753 0.9249 0.0500 Uiso
C89 C 0.0817(4) 0.3949(3) 0.96346(17) 0.0401 Uani
H55 H 0.0453 0.3755 0.9237 0.0480 Uiso
C90 C 0.2075(3) 0.4804(3) 0.98444(14) 0.0291 Uani
C100 C 0.2777(7) 0.8147(6) 0.5655(3) 0.0972 Uani
H60 H 0.3585 0.8327 0.5492 0.1160 Uiso
C101 C 0.1727(14) 0.8629(13) 0.6555(5) 0.2403 Uani
H61 H 0.0927 0.8966 0.6517 0.3620 Uiso
H62 H 0.1446 0.7782 0.6463 0.3620 Uiso
H63 H 0.2189 0.8929 0.6953 0.3620 Uiso
H66 H 0.4576 0.9884 0.6343 0.4820 Uiso
C70 C 0.9509(4) 0.4514(4) 0.69280(15) 0.0375 Uani
H44 H 0.8607 0.4154 0.6755 0.0450 Uiso
C71 C 0.9918(4) 0.4553(4) 0.75093(16) 0.0451 Uani
H45 H 0.9293 0.4211 0.7723 0.0540 Uiso
H54 H 0.9329 0.2855 0.9860 0.0600 Uiso
C62 C 0.1319(3) 0.9817(3) 0.01843(14) 0.0270 Uani
C63 C 0.2652(4) 0.9604(3) 0.03497(16) 0.0363 Uani
H38 H 0.3038 0.9858 0.0745 0.0440 Uiso
H39 H 0.4215 0.8896 0.0059 0.0530 Uiso
C45 C 0.8681(3) 0.0183(3) 0.98157(14) 0.0270 Uani
C46 C 0.7348(4) 0.0396(3) 0.96503(16) 0.0363 Uani
H27 H 0.6962 0.0142 0.9255 0.0440 Uiso
H28 H 0.5785 0.1104 0.9941 0.0530 Uiso
C102 C 0.3657(13) 0.0029(9) 0.6355(8) 0.3223 Uani
H64 H 0.3516 0.0556 0.6116 0.4820 Uiso
H65 H 0.3538 0.0383 0.6756 0.4820 Uiso
C51 C 0.6343(13) 0.9971(9) 0.3645(8) 0.3223 Uani
H31 H 0.6484 0.9444 0.3884 0.4820 Uiso
H32 H 0.6462 0.9617 0.3244 0.4820 Uiso
loop_
_atom_site_aniso_label
_atom_site_aniso_U_11
_atom_site_aniso_U_22
_atom_site_aniso_U_33
_atom_site_aniso_U_23
_atom_site_aniso_U_13
_atom_site_aniso_U_12
O10 0.0282 0.0388 0.0163 -0.0017 0.0028 0.0068
O11 0.0224 0.0427 0.0202 -0.0029 -0.0075 0.0051
C52 0.0206 0.0268 0.0143 0.0017 -0.0027 0.0007
C53 0.0224 0.036 0.0146 -0.0012 -0.0029 0.0024
C54 0.0289 0.089 0.0241 -0.014 -0.0056 0.021
C55 0.0297 0.101 0.029 -0.014 -0.013 0.02
C56 0.034 0.05 0.0172 -0.0027 -0.009 0.002
C57 0.04 0.088 0.0241 -0.019 -0.0019 0.017
C58 0.0265 0.073 0.0267 -0.0127 -0.0063 0.0138
C59 0.04 0.05 0.0229 0.0013 -0.005 0.004
C60 0.0335 0.037 0.0222 -0.0006 -0.0046 -0.0005
C61 0.0304 0.0267 0.0167 0.0002 -0.0057 -0.0029
Dy4 0.01518 0.03074 0.0095 0.00293 -0.00218 0.00393
Dy7 0.01518 0.03074 0.0095 0.00293 -0.00218 0.00393
O2 0.022 0.0472 0.022 0.0142 -0.0063 0.0004
C3 0.0258 0.062 0.0235 0.0163 -0.002 0.0015
C4 0.039 0.072 0.0257 0.0225 0.0028 0.0028
C64 0.0309 0.044 0.055 0.0102 -0.0005 0.0109
C65 0.044 0.048 0.046 0.0008 0.0098 0.0156
C66 0.043 0.039 0.0265 -0.0028 0.0023 0.006
C67 0.03 0.0262 0.0207 0.0015 -0.0026 -0.0002
C47 0.0309 0.044 0.055 0.0102 -0.0005 0.0109
C48 0.044 0.048 0.046 0.0008 0.0098 0.0156
C49 0.043 0.039 0.0265 -0.0028 0.0023 0.006
C50 0.03 0.0262 0.0207 0.0015 -0.0026 -0.0002
O1 0.0244 0.054 0.0175 0.0118 0.0047 0.0099
O5 0.0349 0.0381 0.0525 0.0003 -0.0007 0.0108
O6 0.0269 0.0466 0.0455 0.0207 0.0124 0.0111
O7 0.0236 0.0394 0.026 0.0064 -0.0037 0.0058
O8 0.0282 0.0388 0.0163 -0.0017 0.0028 0.0068
O9 0.0224 0.0427 0.0202 -0.0029 -0.0075 0.0051
N1 0.084 0.07 0.123 -0.044 0.005 0.022
C1 0.0231 0.0264 0.0157 0.0044 -0.002 0.0074
C2 0.0249 0.0347 0.015 0.0064 -0.0012 0.0089
C5 0.042 0.049 0.0162 0.0087 -0.0028 0.0136
C6 0.0314 0.052 0.0243 0.0062 -0.008 0.0036
C7 0.0259 0.047 0.0198 0.0107 -0.001 0.0032
C8 0.044 0.054 0.0226 0.0109 -0.0026 0.0126
C9 0.0409 0.042 0.0216 0.01 -0.0014 0.0106
C10 0.0354 0.0343 0.0163 0.0094 -0.0007 0.0105
C11 0.0336 0.0303 0.0197 0.0099 0.0014 0.0106
C12 0.044 0.04 0.0293 0.0163 0.0101 0.0169
C13 0.044 0.04 0.053 0.025 0.0186 0.0123
C22 0.0363 0.04 0.039 0.0096 -0.0054 0.0014
C23 0.0308 0.033 0.0246 0.0101 -0.0014 0.0086
C33 0.089 0.067 0.123 -0.004 -0.014 0.037
C34 0.281 0.32 0.205 0.096 0.148 0.192
C35 0.0206 0.0268 0.0143 0.0017 -0.0027 0.0007
C36 0.0224 0.036 0.0146 -0.0012 -0.0029 0.0024
C37 0.0289 0.089 0.0241 -0.014 -0.0056 0.021
C38 0.0297 0.101 0.029 -0.014 -0.013 0.02
C39 0.034 0.05 0.0172 -0.0027 -0.009 0.002
C40 0.04 0.088 0.0241 -0.019 -0.0019 0.017
C41 0.0265 0.073 0.0267 -0.0127 -0.0063 0.0138
C42 0.04 0.05 0.0229 0.0013 -0.005 0.004
C43 0.0335 0.037 0.0222 -0.0006 -0.0046 -0.0005
C44 0.0304 0.0267 0.0167 0.0002 -0.0057 -0.0029
O14 0.0382 0.0546 0.0324 0.0203 -0.0111 -0.0081
O15 0.0245 0.0467 0.0229 0.0195 -0.0002 0.0083
C81 0.036 0.038 0.06 0.0177 0.0012 0.0017
C82 0.038 0.039 0.036 0.0094 -0.0071 0.0055
C83 0.0305 0.0311 0.0215 0.0082 -0.0027 0.0101
C84 0.0361 0.035 0.0147 0.0084 -0.0018 0.0105
C85 0.0335 0.037 0.021 0.0133 0.0054 0.0118
C86 0.043 0.052 0.0329 0.0207 0.0109 0.014
C87 0.046 0.05 0.058 0.029 0.022 0.011
C88 0.036 0.042 0.068 0.017 0.001 0.0002
C91 0.042 0.042 0.022 0.0108 0.0011 0.0122
C92 0.047 0.049 0.024 0.0112 -0.0045 0.0121
C93 0.048 0.045 0.0177 0.0085 -0.0034 0.0147
C94 0.0354 0.061 0.0266 0.0129 -0.0075 0.0018
C95 0.0358 0.049 0.0226 0.0163 -0.0016 -0.0006
C96 0.0321 0.0306 0.0176 0.007 -0.0005 0.0057
C97 0.0377 0.038 0.0263 0.0109 -0.0024 0.0004
C98 0.05 0.046 0.0242 0.0178 0.0008 0.0028
C99 0.0304 0.0355 0.0193 0.0104 0.0006 0.0101
O20 0.022 0.0472 0.022 0.0142 -0.0063 0.0004
O3 0.0382 0.0546 0.0324 0.0203 -0.0111 -0.0081
O4 0.0245 0.0467 0.0229 0.0195 -0.0002 0.0083
C14 0.036 0.038 0.06 0.0177 0.0012 0.0017
C15 0.038 0.039 0.036 0.0094 -0.0071 0.0055
C16 0.0305 0.0311 0.0215 0.0082 -0.0027 0.0101
C17 0.0361 0.035 0.0147 0.0084 -0.0018 0.0105
C18 0.0335 0.037 0.021 0.0133 0.0054 0.0118
C19 0.043 0.052 0.0329 0.0207 0.0109 0.014
C20 0.046 0.05 0.058 0.029 0.022 0.011
C21 0.036 0.042 0.068 0.017 0.001 0.0002
C24 0.042 0.042 0.022 0.0108 0.0011 0.0122
C25 0.047 0.049 0.024 0.0112 -0.0045 0.0121
C26 0.048 0.045 0.0177 0.0085 -0.0034 0.0147
C27 0.0354 0.061 0.0266 0.0129 -0.0075 0.0018
C28 0.0358 0.049 0.0226 0.0163 -0.0016 -0.0006
C29 0.0321 0.0306 0.0176 0.007 -0.0005 0.0057
C30 0.0377 0.038 0.0263 0.0109 -0.0024 0.0004
C31 0.05 0.046 0.0242 0.0178 0.0008 0.0028
C32 0.0304 0.0355 0.0193 0.0104 0.0006 0.0101
O12 0.0244 0.054 0.0175 0.0118 0.0047 0.0099
O16 0.0349 0.0381 0.0525 0.0003 -0.0007 0.0108
O17 0.0269 0.0466 0.0455 0.0207 0.0124 0.0111
O18 0.0236 0.0394 0.026 0.0064 -0.0037 0.0058
N2 0.084 0.07 0.123 -0.044 0.005 0.022
C68 0.0231 0.0264 0.0157 0.0044 -0.002 0.0074
C69 0.0249 0.0347 0.015 0.0064 -0.0012 0.0089
C72 0.042 0.049 0.0162 0.0087 -0.0028 0.0136
C73 0.0314 0.052 0.0243 0.0062 -0.008 0.0036
C74 0.0259 0.047 0.0198 0.0107 -0.001 0.0032
C75 0.044 0.054 0.0226 0.0109 -0.0026 0.0126
C76 0.0409 0.042 0.0216 0.01 -0.0014 0.0106
C77 0.0354 0.0343 0.0163 0.0094 -0.0007 0.0105
C78 0.0336 0.0303 0.0197 0.0099 0.0014 0.0106
C79 0.044 0.04 0.0293 0.0163 0.0101 0.0169
C80 0.044 0.04 0.053 0.025 0.0186 0.0123
C89 0.0363 0.04 0.039 0.0096 -0.0054 0.0014
C90 0.0308 0.033 0.0246 0.0101 -0.0014 0.0086
C100 0.089 0.067 0.123 -0.004 -0.014 0.037
C101 0.281 0.32 0.205 0.096 0.148 0.192
C70 0.0258 0.062 0.0235 0.0163 -0.002 0.0015
C71 0.039 0.072 0.0257 0.0225 0.0028 0.0028
C62 0.0281 0.026 0.0213 0.0038 -0.0049 -0.0013
C63 0.0322 0.036 0.0356 0.0066 -0.0077 0.0033
C45 0.0281 0.026 0.0213 0.0038 -0.0049 -0.0013
C46 0.0322 0.036 0.0356 0.0066 -0.0077 0.0033
C102 0.181 0.083 0.57 -0.132 0.012 0.008
C51 0.181 0.083 0.57 -0.132 0.012 0.008
loop_
_geom_bond_atom_site_label_1
_geom_bond_atom_site_label_2
_geom_bond_site_symmetry_1
_geom_bond_site_symmetry_2
O10 C52 1_555 1_555
O11 C52 1_555 1_555
C52 C53 1_555 1_555
C53 C54 1_555 1_555
C54 H34 1_555 1_555
C55 C54 1_555 1_555
H35 C55 1_555 1_555
C56 C55 1_555 1_555
C57 C56 1_555 1_555
H36 C57 1_555 1_555
C58 C53 1_555 1_555
H37 C58 1_555 1_555
C59 C56 1_555 1_555
C60 C59 1_555 1_555
Dy4 O11 1_555 1_555
Dy7 O10 1_555 1_555
C57 C58 1_555 1_555
C60 C61 1_555 1_555
C3 H3 1_555 1_555
C4 C3 1_555 1_555
H4 C4 1_555 1_555
C65 C64 1_555 1_555
H40 C65 1_555 1_555
C66 C65 1_555 1_555
H41 C66 1_555 1_555
Dy7 O2 1_555 1_555
C66 C67 1_555 1_555
C48 C47 1_555 1_555
H29 C48 1_555 1_555
C49 C48 1_555 1_555
H30 C49 1_555 1_555
C49 C50 1_555 1_555
Dy4 O1 1_555 1_555
O1 C1 1_555 1_555
O5 Dy4 1_555 1_555
O6 Dy4 1_555 1_555
O7 Dy4 1_555 1_555
O8 Dy4 1_555 1_555
O9 C35 1_555 1_555
N1 C33 1_555 1_555
C1 C2 1_555 1_555
C6 C5 1_555 1_555
H5 C6 1_555 1_555
C7 C2 1_555 1_555
H6 C7 1_555 1_555
C8 C5 1_555 1_555
C9 C8 1_555 1_555
C10 C9 1_555 1_555
C11 C10 1_555 1_555
C12 C11 1_555 1_555
H7 C12 1_555 1_555
C13 C12 1_555 1_555
H8 C13 1_555 1_555
H14 C22 1_555 1_555
C23 C10 1_555 1_555
C33 O5 1_555 1_555
H19 C33 1_555 1_555
C34 N1 1_555 1_555
H20 C34 1_555 1_555
H21 C34 1_555 1_555
H22 C34 1_555 1_555
C35 O8 1_555 1_555
C36 C35 1_555 1_555
C37 C36 1_555 1_555
H23 C37 1_555 1_555
C38 C37 1_555 1_555
H24 C38 1_555 1_555
C39 C38 1_555 1_555
C40 C39 1_555 1_555
H25 C40 1_555 1_555
C41 C36 1_555 1_555
H26 C41 1_555 1_555
C42 C39 1_555 1_555
C43 C42 1_555 1_555
C44 C43 1_555 1_555
O14 C99 1_555 1_555
O15 Dy4 1_555 1_555
H50 C81 1_555 1_555
C82 C81 1_555 1_555
H51 C82 1_555 1_555
C84 C83 1_555 1_555
C85 C84 1_555 1_555
C86 C85 1_555 1_555
H52 C86 1_555 1_555
C87 C86 1_555 1_555
H53 C87 1_555 1_555
C88 C87 1_555 1_555
C91 C84 1_555 1_555
C92 C91 1_555 1_555
C93 C92 1_555 1_555
C94 C93 1_555 1_555
H56 C94 1_555 1_555
C95 C94 1_555 1_555
H57 C95 1_555 1_555
C96 C95 1_555 1_555
C97 C96 1_555 1_555
H58 C97 1_555 1_555
C98 C93 1_555 1_555
H59 C98 1_555 1_555
C99 O15 1_555 1_555
Dy7 O9 1_555 1_555
O20 Dy4 1_555 1_555
C6 C7 1_555 1_555
C22 C23 1_555 1_555
C40 C41 1_555 1_555
C82 C83 1_555 1_555
C96 C99 1_555 1_555
C97 C98 1_555 1_555
O3 C32 1_555 1_555
O4 C32 1_555 1_555
H9 C14 1_555 1_555
C15 C14 1_555 1_555
H10 C15 1_555 1_555
C17 C16 1_555 1_555
C18 C17 1_555 1_555
C19 C18 1_555 1_555
H11 C19 1_555 1_555
C20 C19 1_555 1_555
H12 C20 1_555 1_555
C21 C20 1_555 1_555
C24 C17 1_555 1_555
C25 C24 1_555 1_555
C26 C25 1_555 1_555
C27 C26 1_555 1_555
H15 C27 1_555 1_555
C28 C27 1_555 1_555
H16 C28 1_555 1_555
C29 C28 1_555 1_555
C30 C29 1_555 1_555
H17 C30 1_555 1_555
C31 C26 1_555 1_555
H18 C31 1_555 1_555
C32 C29 1_555 1_555
Dy7 O4 1_555 1_555
O12 Dy7 1_555 1_555
O16 Dy7 1_555 1_555
O17 Dy7 1_555 1_555
O18 Dy7 1_555 1_555
N2 C100 1_555 1_555
C68 O12 1_555 1_555
C69 C68 1_555 1_555
C73 C72 1_555 1_555
H46 C73 1_555 1_555
C74 C69 1_555 1_555
H47 C74 1_555 1_555
C75 C72 1_555 1_555
C76 C75 1_555 1_555
C77 C76 1_555 1_555
C78 C77 1_555 1_555
C79 C78 1_555 1_555
H48 C79 1_555 1_555
C80 C79 1_555 1_555
H49 C80 1_555 1_555
H55 C89 1_555 1_555
C90 C77 1_555 1_555
C100 O16 1_555 1_555
H60 C100 1_555 1_555
C101 N2 1_555 1_555
H61 C101 1_555 1_555
H62 C101 1_555 1_555
H63 C101 1_555 1_555
C15 C16 1_555 1_555
C30 C31 1_555 1_555
C73 C74 1_555 1_555
C89 C90 1_555 1_555
H44 C70 1_555 1_555
C71 C70 1_555 1_555
H45 C71 1_555 1_555
C63 C62 1_555 1_555
H38 C63 1_555 1_555
C46 C45 1_555 1_555
H27 C46 1_555 1_555
H64 C102 1_555 1_555
H65 C102 1_555 1_555
H31 C51 1_555 1_555
H32 C51 1_555 1_555

#END
