
###############################################################################
#
# This file contains modified crystal structure data generated from the
# MOF subset of the Cambridge Structural Database (CSD) v543 
# hosted by the Cambridge Crystallographic Data Centre (CCDC).
#
# This work is licensed under the Creative Commons
# Attribution-NonCommercial-ShareAlike 4.0 International License.
# To view a copy of this license, visit
# http://creativecommons.org/licenses/by-nc-sa/4.0/
# or send a letter to
# Creative Commons, PO Box 1866, Mountain View, CA 94042, USA.
#
# CIF created using the CSD Python API on 29 September 2022
# The structure has been converted into the P1 space group
# The structure has a 3D framework
# The original CSD entry ZEFKAA is in the orthorhombic crystal system
# The framework has been calculated to contain at least 10.0% void space
# The void calculation uses a probe of radius 1.32A, grid spacing 0.4
# H atom positions have been added when not included in the experimental data
#
###############################################################################

data_ZEFKAA
_chemical_formula_moiety         '(C96 H96 N64 Zn16)n'
_symmetry_cell_setting           triclinic
_symmetry_space_group_name_H-M   'P 1'
_symmetry_Int_Tables_number      1
_space_group_name_Hall           'P 1'
loop_
_symmetry_equiv_pos_site_id
_symmetry_equiv_pos_as_xyz
1 x,y,z
_cell_length_a                   15.4776(12)
_cell_length_b                   15.4837(9)
_cell_length_c                   18.0555(10)
_cell_angle_alpha                90
_cell_angle_beta                 90
_cell_angle_gamma                90
_cell_volume                     4327.01
loop_
_atom_site_label
_atom_site_type_symbol
_atom_site_fract_x
_atom_site_fract_y
_atom_site_fract_z
_atom_site_U_iso_or_equiv
_atom_site_thermal_displace_type
Zn5 Zn 0.00864 0.15405 0.31006 0.0570 Uiso
H4 H 0.037452 0.356318 0.368758 . .
C1 C 0.60019 0.3674 0.54736 0.0760 Uiso
C2 C 0.57707 0.26033 0.31478 0.0760 Uiso
C3 C 0.60124 0.51061 0.35926 0.0760 Uiso
C4 C 0.85845 0.25263 0.36549 0.0760 Uiso
C5 C 0.635471 0.543322 0.247573 0.0760 Uiso
C6 C 0.694499 0.479710 0.273047 0.0760 Uiso
C7 C 0.627812 0.173722 0.399146 0.0760 Uiso
C8 C 0.588771 0.125704 0.341099 0.0760 Uiso
C9 C 0.671648 0.428245 0.634809 0.0760 Uiso
C10 C 0.722086 0.432634 0.569222 0.0760 Uiso
C11 C 0.971060 0.333190 0.371066 0.0760 Uiso
C12 C 0.898369 0.384041 0.391085 0.0760 Uiso
N1 N 0.577641 0.562059 0.301805 0.0633 Uiso
N2 N 0.557373 0.180401 0.288828 0.0633 Uiso
N3 N 0.619451 0.258828 0.381005 0.0633 Uiso
N4 N 0.671271 0.460189 0.343972 0.0633 Uiso
N5 N 0.945361 0.251389 0.355231 0.0633 Uiso
N6 N 0.827907 0.331340 0.387070 0.0633 Uiso
N7 N 0.595802 0.387437 0.620487 0.0633 Uiso
N8 N 0.675220 0.393588 0.514707 0.0633 Uiso
Zn1 Zn 0.50864 0.34595 0.68994 0.0570 Uiso
Zn2 Zn 0.70034 0.35831 0.4077 0.0570 Uiso
N9 N 0.422359 0.437941 0.698195 0.0633 Uiso
N10 N 0.557373 0.319599 0.788828 0.0633 Uiso
N11 N 0.445361 0.248611 0.644769 0.0633 Uiso
Zn3 Zn 0.50864 0.15405 0.18994 0.0570 Uiso
Zn4 Zn 0.49136 0.65405 0.31006 0.0570 Uiso
H1 H 0.548937 0.333789 0.517751 . .
H2 H 0.560671 0.319685 0.285636 . .
H3 H 0.567619 0.509698 0.412237 . .
H5 H 0.785866 0.461583 0.563544 . .
H6 H 0.58463 0.0555434 0.338839 . .
H7 H 0.817262 0.196412 0.357307 . .
H8 H 0.658501 0.147638 0.448596 . .
H9 H 0.636433 0.572677 0.19277 . .
H10 H 0.747984 0.451885 0.241961 . .
H11 H 0.6909 0.453773 0.688532 . .
H12 H 0.898796 0.451993 0.406639 . .
C3_2 C 0.39876 0.01061 0.14074 0.0760 Uiso
C5_2 C 0.364529 0.043322 0.252427 0.0760 Uiso
N1_2 N 0.422359 0.062059 0.198195 0.0633 Uiso
H3_2 H 0.432381 0.00969844 0.0877633 . .
H9_2 H 0.363567 0.0726765 0.30723 . .
C2_2 C 0.42293 0.76033 0.18522 0.0760 Uiso
C4_2 C 0.14155 0.75263 0.13451 0.0760 Uiso
C6_2 C 0.305501 0.979710 0.226953 0.0760 Uiso
C7_2 C 0.372188 0.673722 0.100854 0.0760 Uiso
C8_2 C 0.411229 0.625704 0.158901 0.0760 Uiso
C11_2 C 0.028940 0.833190 0.128934 0.0760 Uiso
C12_2 C 0.101631 0.884041 0.108915 0.0760 Uiso
N2_2 N 0.442627 0.680401 0.211172 0.0633 Uiso
N3_2 N 0.380549 0.758828 0.118995 0.0633 Uiso
N4_2 N 0.328729 0.960189 0.156028 0.0633 Uiso
N5_2 N 0.054639 0.751389 0.144769 0.0633 Uiso
N6_2 N 0.172093 0.831340 0.112930 0.0633 Uiso
Zn2_2 Zn 0.29966 0.85831 0.0923 0.0570 Uiso
H2_2 H 0.439329 0.819685 0.214364 . .
H6_2 H 0.41537 0.555543 0.161161 . .
H7_2 H 0.182738 0.696412 0.142693 . .
H8_2 H 0.341499 0.647638 0.0514038 . .
H10_2 H 0.252016 0.951885 0.258039 . .
H12_2 H 0.101204 0.951993 0.0933605 . .
C1_2 C 0.39981 0.8674 0.95264 0.0760 Uiso
C9_2 C 0.328352 0.928245 0.865191 0.0760 Uiso
C10_2 C 0.277914 0.932634 0.930778 0.0760 Uiso
N7_2 N 0.404198 0.887437 0.879513 0.0633 Uiso
N8_2 N 0.324780 0.893588 0.985293 0.0633 Uiso
Zn1_2 Zn 0.49136 0.84595 0.81006 0.0570 Uiso
N9_2 N 0.577641 0.937941 0.801805 0.0633 Uiso
N10_2 N 0.442627 0.819599 0.711172 0.0633 Uiso
N11_2 N 0.554639 0.748611 0.855231 0.0633 Uiso
H1_2 H 0.451063 0.833789 0.982249 . .
H5_2 H 0.214134 0.961583 0.936456 . .
H11_2 H 0.3091 0.953773 0.811468 . .
Zn5_2 Zn 0.99136 0.65405 0.18994 0.0570 Uiso
H4_2 H 0.962548 0.856318 0.131242 . .
N9_3 N 0.077641 0.562059 0.198195 0.0633 Uiso
Zn4_2 Zn 0.00864 0.34595 0.81006 0.0570 Uiso
C1_3 C 0.89981 0.6326 0.04736 0.0760 Uiso
C9_3 C 0.828352 0.571755 0.134809 0.0760 Uiso
C10_3 C 0.777914 0.567366 0.069222 0.0760 Uiso
N7_3 N 0.904198 0.612563 0.120487 0.0633 Uiso
N8_3 N 0.824780 0.606412 0.014707 0.0633 Uiso
N10_3 N 0.942627 0.680401 0.288828 0.0633 Uiso
H1_3 H 0.951063 0.666211 0.0177512 . .
H5_3 H 0.714134 0.538417 0.0635436 . .
H11_3 H 0.8091 0.546227 0.188532 . .
C2_3 C 0.92293 0.73967 0.81478 0.0760 Uiso
C3_3 C 0.89876 0.48939 0.85926 0.0760 Uiso
C4_3 C 0.64155 0.74737 0.86549 0.0760 Uiso
C5_3 C 0.864529 0.456678 0.747573 0.0760 Uiso
C6_3 C 0.805501 0.520290 0.773047 0.0760 Uiso
C7_3 C 0.872188 0.826278 0.899146 0.0760 Uiso
C8_3 C 0.911229 0.874296 0.841099 0.0760 Uiso
C11_3 C 0.528940 0.666810 0.871066 0.0760 Uiso
C12_3 C 0.601631 0.615959 0.891085 0.0760 Uiso
N1_3 N 0.922359 0.437941 0.801805 0.0633 Uiso
N2_3 N 0.942627 0.819599 0.788828 0.0633 Uiso
N3_3 N 0.880549 0.741172 0.881005 0.0633 Uiso
N4_3 N 0.828729 0.539811 0.843972 0.0633 Uiso
N6_3 N 0.672093 0.668660 0.887070 0.0633 Uiso
Zn2_3 Zn 0.79966 0.64169 0.9077 0.0570 Uiso
Zn3_2 Zn 0.99136 0.84595 0.68994 0.0570 Uiso
H2_3 H 0.939329 0.680315 0.785636 . .
H3_3 H 0.932381 0.490302 0.912237 . .
H4_3 H 0.462548 0.643682 0.868758 . .
H6_3 H 0.91537 0.944457 0.838839 . .
H7_3 H 0.682738 0.803588 0.857307 . .
H8_3 H 0.841499 0.852362 0.948596 . .
H9_3 H 0.863567 0.427323 0.69277 . .
H10_3 H 0.752016 0.548115 0.741961 . .
H12_3 H 0.601204 0.548007 0.906639 . .
C1_4 C 0.10019 0.1326 0.45264 0.0760 Uiso
C2_4 C 0.07707 0.23967 0.68522 0.0760 Uiso
C4_4 C 0.35845 0.24737 0.63451 0.0760 Uiso
C6_4 C 0.194499 0.020290 0.726953 0.0760 Uiso
C7_4 C 0.127812 0.326278 0.600854 0.0760 Uiso
C8_4 C 0.088771 0.374296 0.658901 0.0760 Uiso
C9_4 C 0.171648 0.071755 0.365191 0.0760 Uiso
C10_4 C 0.222086 0.067366 0.430778 0.0760 Uiso
C11_4 C 0.471060 0.166810 0.628934 0.0760 Uiso
C12_4 C 0.398369 0.115959 0.608915 0.0760 Uiso
N2_4 N 0.057373 0.319599 0.711172 0.0633 Uiso
N3_4 N 0.119451 0.241172 0.618995 0.0633 Uiso
N4_4 N 0.171271 0.039811 0.656028 0.0633 Uiso
N6_4 N 0.327907 0.168660 0.612930 0.0633 Uiso
N7_4 N 0.095802 0.112563 0.379513 0.0633 Uiso
N8_4 N 0.175220 0.106412 0.485293 0.0633 Uiso
Zn2_4 Zn 0.20034 0.14169 0.5923 0.0570 Uiso
N10_4 N 0.057373 0.180401 0.211172 0.0633 Uiso
H1_4 H 0.0489372 0.166211 0.482249 . .
H2_4 H 0.0606711 0.180315 0.714364 . .
H4_4 H 0.537452 0.143682 0.631242 . .
H5_4 H 0.285866 0.0384172 0.436456 . .
H6_4 H 0.0846301 0.444457 0.661161 . .
H7_4 H 0.317262 0.303588 0.642693 . .
H8_4 H 0.158501 0.352362 0.551404 . .
H10_4 H 0.247984 0.0481155 0.758039 . .
H11_4 H 0.1909 0.0462269 0.311468 . .
H12_4 H 0.398796 0.0480074 0.593361 . .
C3_4 C 0.10124 0.98939 0.64074 0.0760 Uiso
C5_4 C 0.135471 0.956678 0.752427 0.0760 Uiso
N1_4 N 0.077641 0.937941 0.698195 0.0633 Uiso
H3_4 H 0.0676188 0.990302 0.587763 . .
H9_4 H 0.136433 0.927323 0.80723 . .
N9_4 N 0.922359 0.062059 0.301805 0.0633 Uiso
C1_5 C 0.39981 0.6326 0.45264 0.0760 Uiso
C2_5 C 0.42293 0.73967 0.68522 0.0760 Uiso
C3_5 C 0.39876 0.48939 0.64074 0.0760 Uiso
C4_5 C 0.14155 0.74737 0.63451 0.0760 Uiso
C5_5 C 0.364529 0.456678 0.752427 0.0760 Uiso
C6_5 C 0.305501 0.520290 0.726953 0.0760 Uiso
C7_5 C 0.372188 0.826278 0.600854 0.0760 Uiso
C8_5 C 0.411229 0.874296 0.658901 0.0760 Uiso
C9_5 C 0.328352 0.571755 0.365191 0.0760 Uiso
C10_5 C 0.277914 0.567366 0.430778 0.0760 Uiso
C11_5 C 0.028940 0.666810 0.628934 0.0760 Uiso
C12_5 C 0.101631 0.615959 0.608915 0.0760 Uiso
N3_5 N 0.380549 0.741172 0.618995 0.0633 Uiso
N4_5 N 0.328729 0.539811 0.656028 0.0633 Uiso
N5_3 N 0.054639 0.748611 0.644769 0.0633 Uiso
N6_5 N 0.172093 0.668660 0.612930 0.0633 Uiso
N7_5 N 0.404198 0.612563 0.379513 0.0633 Uiso
N8_5 N 0.324780 0.606412 0.485293 0.0633 Uiso
Zn2_5 Zn 0.29966 0.64169 0.5923 0.0570 Uiso
N11_3 N 0.554639 0.751389 0.355231 0.0633 Uiso
H1_5 H 0.451063 0.666211 0.482249 . .
H2_5 H 0.439329 0.680315 0.714364 . .
H3_5 H 0.432381 0.490302 0.587763 . .
H5_5 H 0.214134 0.538417 0.436456 . .
H6_5 H 0.41537 0.944457 0.661161 . .
H7_5 H 0.182738 0.803588 0.642693 . .
H8_5 H 0.341499 0.852362 0.551404 . .
H9_5 H 0.363567 0.427323 0.80723 . .
H10_5 H 0.252016 0.548115 0.758039 . .
H11_5 H 0.3091 0.546227 0.311468 . .
H12_5 H 0.101204 0.548007 0.593361 . .
H4_5 H 0.962548 0.643682 0.631242 . .
H4_6 H 0.037452 0.143682 0.868758 . .
C1_6 C 0.60019 0.1326 0.04736 0.0760 Uiso
C9_6 C 0.671648 0.071755 0.134809 0.0760 Uiso
C10_6 C 0.722086 0.067366 0.069222 0.0760 Uiso
N7_6 N 0.595802 0.112563 0.120487 0.0633 Uiso
N8_6 N 0.675220 0.106412 0.014707 0.0633 Uiso
N11_4 N 0.445361 0.251389 0.144769 0.0633 Uiso
H1_6 H 0.548937 0.166211 0.0177512 . .
H5_6 H 0.785866 0.0384172 0.0635436 . .
H11_6 H 0.6909 0.0462269 0.188532 . .
C2_6 C 0.57707 0.23967 0.81478 0.0760 Uiso
C4_6 C 0.85845 0.24737 0.86549 0.0760 Uiso
C6_6 C 0.694499 0.020290 0.773047 0.0760 Uiso
C7_6 C 0.627812 0.326278 0.899146 0.0760 Uiso
C8_6 C 0.588771 0.374296 0.841099 0.0760 Uiso
C11_6 C 0.971060 0.166810 0.871066 0.0760 Uiso
C12_6 C 0.898369 0.115959 0.891085 0.0760 Uiso
N3_6 N 0.619451 0.241172 0.881005 0.0633 Uiso
N4_6 N 0.671271 0.039811 0.843972 0.0633 Uiso
N5_4 N 0.945361 0.248611 0.855231 0.0633 Uiso
N6_6 N 0.827907 0.168660 0.887070 0.0633 Uiso
Zn2_6 Zn 0.70034 0.14169 0.9077 0.0570 Uiso
H2_6 H 0.560671 0.180315 0.785636 . .
H6_6 H 0.58463 0.444457 0.838839 . .
H7_6 H 0.817262 0.303588 0.857307 . .
H8_6 H 0.658501 0.352362 0.948596 . .
H10_6 H 0.747984 0.0481155 0.741961 . .
H12_6 H 0.898796 0.0480074 0.906639 . .
C3_6 C 0.60124 0.98939 0.85926 0.0760 Uiso
C5_6 C 0.635471 0.956678 0.747573 0.0760 Uiso
H3_6 H 0.567619 0.990302 0.912237 . .
H9_6 H 0.636433 0.927323 0.69277 . .
C2_7 C 0.07707 0.26033 0.18522 0.0760 Uiso
C3_7 C 0.10124 0.51061 0.14074 0.0760 Uiso
C4_7 C 0.35845 0.25263 0.13451 0.0760 Uiso
C5_7 C 0.135471 0.543322 0.252427 0.0760 Uiso
C6_7 C 0.194499 0.479710 0.226953 0.0760 Uiso
C7_7 C 0.127812 0.173722 0.100854 0.0760 Uiso
C8_7 C 0.088771 0.125704 0.158901 0.0760 Uiso
C11_7 C 0.471060 0.333190 0.128934 0.0760 Uiso
C12_7 C 0.398369 0.384041 0.108915 0.0760 Uiso
N3_7 N 0.119451 0.258828 0.118995 0.0633 Uiso
N4_7 N 0.171271 0.460189 0.156028 0.0633 Uiso
N6_7 N 0.327907 0.331340 0.112930 0.0633 Uiso
Zn2_7 Zn 0.20034 0.35831 0.0923 0.0570 Uiso
H2_7 H 0.0606711 0.319685 0.214364 . .
H3_7 H 0.0676188 0.509698 0.0877633 . .
H4_7 H 0.537452 0.356318 0.131242 . .
H6_7 H 0.0846301 0.0555434 0.161161 . .
H7_7 H 0.317262 0.196412 0.142693 . .
H8_7 H 0.158501 0.147638 0.0514038 . .
H9_7 H 0.136433 0.572677 0.30723 . .
H10_7 H 0.247984 0.451885 0.258039 . .
H12_7 H 0.398796 0.451993 0.0933605 . .
C1_7 C 0.10019 0.3674 0.95264 0.0760 Uiso
C9_7 C 0.171648 0.428245 0.865191 0.0760 Uiso
C10_7 C 0.222086 0.432634 0.930778 0.0760 Uiso
N7_7 N 0.095802 0.387437 0.879513 0.0633 Uiso
N8_7 N 0.175220 0.393588 0.985293 0.0633 Uiso
H1_7 H 0.0489372 0.333789 0.982249 . .
H5_7 H 0.285866 0.461583 0.936456 . .
H11_7 H 0.1909 0.453773 0.811468 . .
C3_8 C 0.89876 0.01061 0.35926 0.0760 Uiso
C5_8 C 0.864529 0.043322 0.247573 0.0760 Uiso
H3_8 H 0.932381 0.00969844 0.412237 . .
H9_8 H 0.863567 0.0726765 0.19277 . .
C1_8 C 0.89981 0.8674 0.54736 0.0760 Uiso
C2_8 C 0.92293 0.76033 0.31478 0.0760 Uiso
C4_8 C 0.64155 0.75263 0.36549 0.0760 Uiso
C6_8 C 0.805501 0.979710 0.273047 0.0760 Uiso
C7_8 C 0.872188 0.673722 0.399146 0.0760 Uiso
C8_8 C 0.911229 0.625704 0.341099 0.0760 Uiso
C9_8 C 0.828352 0.928245 0.634809 0.0760 Uiso
C10_8 C 0.777914 0.932634 0.569222 0.0760 Uiso
C11_8 C 0.528940 0.833190 0.371066 0.0760 Uiso
C12_8 C 0.601631 0.884041 0.391085 0.0760 Uiso
N3_8 N 0.880549 0.758828 0.381005 0.0633 Uiso
N4_8 N 0.828729 0.960189 0.343972 0.0633 Uiso
N6_8 N 0.672093 0.831340 0.387070 0.0633 Uiso
N7_8 N 0.904198 0.887437 0.620487 0.0633 Uiso
N8_8 N 0.824780 0.893588 0.514707 0.0633 Uiso
Zn2_8 Zn 0.79966 0.85831 0.4077 0.0570 Uiso
H1_8 H 0.951063 0.833789 0.517751 . .
H2_8 H 0.939329 0.819685 0.285636 . .
H4_8 H 0.462548 0.856318 0.368758 . .
H5_8 H 0.714134 0.961583 0.563544 . .
H6_8 H 0.91537 0.555543 0.338839 . .
H7_8 H 0.682738 0.696412 0.357307 . .
H8_8 H 0.841499 0.647638 0.448596 . .
H10_8 H 0.752016 0.951885 0.241961 . .
H11_8 H 0.8091 0.953773 0.688532 . .
H12_8 H 0.601204 0.951993 0.406639 . .
loop_
_geom_bond_atom_site_label_1
_geom_bond_atom_site_label_2
_geom_bond_site_symmetry_1
_geom_bond_site_symmetry_2
C1 N7 1_555 1_555
C2 N2 1_555 1_555
C3 N1 1_555 1_555
C4 N5 1_555 1_555
C5 C6 1_555 1_555
C6 N4 1_555 1_555
C7 C8 1_555 1_555
C8 N2 1_555 1_555
C9 C10 1_555 1_555
C10 N8 1_555 1_555
C11 C12 1_555 1_555
C12 N6 1_555 1_555
N1 C5 1_555 1_555
N2 Zn3 1_555 1_555
N3 C2 1_555 1_555
N4 C3 1_555 1_555
N5 C11 1_555 1_555
N6 C4 1_555 1_555
N7 C9 1_555 1_555
N8 C1 1_555 1_555
Zn1 N7 1_555 1_555
Zn2 N3 1_555 1_555
N9 Zn1 1_555 1_555
N10 Zn1 1_555 1_555
N11 Zn1 1_555 1_555
Zn4 N1 1_555 1_555
C7 N3 1_555 1_555
N4 Zn2 1_555 1_555
N6 Zn2 1_555 1_555
N8 Zn2 1_555 1_555
C1 H1 1_555 1_555
C2 H2 1_555 1_555
C3 H3 1_555 1_555
C10 H5 1_555 1_555
C8 H6 1_555 1_555
C4 H7 1_555 1_555
C7 H8 1_555 1_555
C5 H9 1_555 1_555
C6 H10 1_555 1_555
C9 H11 1_555 1_555
C12 H12 1_555 1_555
C3_2 N1_2 1_555 1_555
N1_2 C5_2 1_555 1_555
Zn3 N1_2 1_555 1_555
C3_2 H3_2 1_555 1_555
C5_2 H9_2 1_555 1_555
C2_2 N2_2 1_555 1_555
C4_2 N5_2 1_555 1_555
C6_2 N4_2 1_555 1_555
C7_2 C8_2 1_555 1_555
C8_2 N2_2 1_555 1_555
C11_2 C12_2 1_555 1_555
C12_2 N6_2 1_555 1_555
N2_2 Zn4 1_555 1_555
N3_2 C2_2 1_555 1_555
N5_2 C11_2 1_555 1_555
N6_2 C4_2 1_555 1_555
Zn2_2 N3_2 1_555 1_555
C7_2 N3_2 1_555 1_555
N4_2 Zn2_2 1_555 1_555
N6_2 Zn2_2 1_555 1_555
C2_2 H2_2 1_555 1_555
C8_2 H6_2 1_555 1_555
C4_2 H7_2 1_555 1_555
C7_2 H8_2 1_555 1_555
C6_2 H10_2 1_555 1_555
C12_2 H12_2 1_555 1_555
C1_2 N7_2 1_555 1_555
C9_2 C10_2 1_555 1_555
C10_2 N8_2 1_555 1_555
N7_2 C9_2 1_555 1_555
N8_2 C1_2 1_555 1_555
Zn1_2 N7_2 1_555 1_555
N9_2 Zn1_2 1_555 1_555
N10_2 Zn1_2 1_555 1_555
N11_2 Zn1_2 1_555 1_555
C1_2 H1_2 1_555 1_555
C10_2 H5_2 1_555 1_555
C9_2 H11_2 1_555 1_555
C1_3 N7_3 1_555 1_555
C9_3 C10_3 1_555 1_555
C10_3 N8_3 1_555 1_555
N7_3 C9_3 1_555 1_555
N8_3 C1_3 1_555 1_555
Zn5_2 N7_3 1_555 1_555
N10_3 Zn5_2 1_555 1_555
C1_3 H1_3 1_555 1_555
C10_3 H5_3 1_555 1_555
C9_3 H11_3 1_555 1_555
C2_3 N2_3 1_555 1_555
C3_3 N1_3 1_555 1_555
C4_3 N11_2 1_555 1_555
C5_3 C6_3 1_555 1_555
C6_3 N4_3 1_555 1_555
C7_3 C8_3 1_555 1_555
C8_3 N2_3 1_555 1_555
C11_3 C12_3 1_555 1_555
C12_3 N6_3 1_555 1_555
N1_3 C5_3 1_555 1_555
N2_3 Zn3_2 1_555 1_555
N3_3 C2_3 1_555 1_555
N4_3 C3_3 1_555 1_555
N11_2 C11_3 1_555 1_555
N6_3 C4_3 1_555 1_555
Zn2_3 N3_3 1_555 1_555
C7_3 N3_3 1_555 1_555
N4_3 Zn2_3 1_555 1_555
N6_3 Zn2_3 1_555 1_555
C2_3 H2_3 1_555 1_555
C3_3 H3_3 1_555 1_555
C11_3 H4_3 1_555 1_555
C8_3 H6_3 1_555 1_555
C4_3 H7_3 1_555 1_555
C7_3 H8_3 1_555 1_555
C5_3 H9_3 1_555 1_555
C6_3 H10_3 1_555 1_555
C12_3 H12_3 1_555 1_555
C1_4 N7_4 1_555 1_555
C2_4 N2_4 1_555 1_555
C4_4 N11 1_555 1_555
C6_4 N4_4 1_555 1_555
C7_4 C8_4 1_555 1_555
C8_4 N2_4 1_555 1_555
C9_4 C10_4 1_555 1_555
C10_4 N8_4 1_555 1_555
C11_4 C12_4 1_555 1_555
C12_4 N6_4 1_555 1_555
N2_4 Zn4_2 1_555 1_555
N3_4 C2_4 1_555 1_555
N11 C11_4 1_555 1_555
N6_4 C4_4 1_555 1_555
N7_4 C9_4 1_555 1_555
N8_4 C1_4 1_555 1_555
Zn5 N7_4 1_555 1_555
Zn2_4 N3_4 1_555 1_555
N10_4 Zn5 1_555 1_555
C7_4 N3_4 1_555 1_555
N4_4 Zn2_4 1_555 1_555
N6_4 Zn2_4 1_555 1_555
N8_4 Zn2_4 1_555 1_555
C1_4 H1_4 1_555 1_555
C2_4 H2_4 1_555 1_555
C11_4 H4_4 1_555 1_555
C10_4 H5_4 1_555 1_555
C8_4 H6_4 1_555 1_555
C4_4 H7_4 1_555 1_555
C7_4 H8_4 1_555 1_555
C6_4 H10_4 1_555 1_555
C9_4 H11_4 1_555 1_555
C12_4 H12_4 1_555 1_555
C3_4 N1_4 1_555 1_555
N1_4 C5_4 1_555 1_555
C3_4 H3_4 1_555 1_555
C5_4 H9_4 1_555 1_555
C1_5 N7_5 1_555 1_555
C2_5 N10_2 1_555 1_555
C3_5 N9 1_555 1_555
C4_5 N5_3 1_555 1_555
C5_5 C6_5 1_555 1_555
C6_5 N4_5 1_555 1_555
C7_5 C8_5 1_555 1_555
C8_5 N10_2 1_555 1_555
C9_5 C10_5 1_555 1_555
C10_5 N8_5 1_555 1_555
C11_5 C12_5 1_555 1_555
C12_5 N6_5 1_555 1_555
N9 C5_5 1_555 1_555
N3_5 C2_5 1_555 1_555
N4_5 C3_5 1_555 1_555
N5_3 C11_5 1_555 1_555
N6_5 C4_5 1_555 1_555
N7_5 C9_5 1_555 1_555
N8_5 C1_5 1_555 1_555
Zn4 N7_5 1_555 1_555
Zn2_5 N3_5 1_555 1_555
N11_3 Zn4 1_555 1_555
C7_5 N3_5 1_555 1_555
N4_5 Zn2_5 1_555 1_555
N6_5 Zn2_5 1_555 1_555
N8_5 Zn2_5 1_555 1_555
C1_5 H1_5 1_555 1_555
C2_5 H2_5 1_555 1_555
C3_5 H3_5 1_555 1_555
C10_5 H5_5 1_555 1_555
C8_5 H6_5 1_555 1_555
C4_5 H7_5 1_555 1_555
C7_5 H8_5 1_555 1_555
C5_5 H9_5 1_555 1_555
C6_5 H10_5 1_555 1_555
C9_5 H11_5 1_555 1_555
C12_5 H12_5 1_555 1_555
C1_6 N7_6 1_555 1_555
C9_6 C10_6 1_555 1_555
C10_6 N8_6 1_555 1_555
N7_6 C9_6 1_555 1_555
N8_6 C1_6 1_555 1_555
Zn3 N7_6 1_555 1_555
N11_4 Zn3 1_555 1_555
C1_6 H1_6 1_555 1_555
C10_6 H5_6 1_555 1_555
C9_6 H11_6 1_555 1_555
C2_6 N10 1_555 1_555
C4_6 N5_4 1_555 1_555
C6_6 N4_6 1_555 1_555
C7_6 C8_6 1_555 1_555
C8_6 N10 1_555 1_555
C11_6 C12_6 1_555 1_555
C12_6 N6_6 1_555 1_555
N3_6 C2_6 1_555 1_555
N5_4 C11_6 1_555 1_555
N6_6 C4_6 1_555 1_555
Zn2_6 N3_6 1_555 1_555
C7_6 N3_6 1_555 1_555
N4_6 Zn2_6 1_555 1_555
N6_6 Zn2_6 1_555 1_555
C2_6 H2_6 1_555 1_555
C8_6 H6_6 1_555 1_555
C4_6 H7_6 1_555 1_555
C7_6 H8_6 1_555 1_555
C6_6 H10_6 1_555 1_555
C12_6 H12_6 1_555 1_555
C3_6 N9_2 1_555 1_555
N9_2 C5_6 1_555 1_555
C3_6 H3_6 1_555 1_555
C5_6 H9_6 1_555 1_555
C2_7 N10_4 1_555 1_555
C3_7 N9_3 1_555 1_555
C4_7 N11_4 1_555 1_555
C5_7 C6_7 1_555 1_555
C6_7 N4_7 1_555 1_555
C7_7 C8_7 1_555 1_555
C8_7 N10_4 1_555 1_555
C11_7 C12_7 1_555 1_555
C12_7 N6_7 1_555 1_555
N9_3 C5_7 1_555 1_555
N3_7 C2_7 1_555 1_555
N4_7 C3_7 1_555 1_555
N11_4 C11_7 1_555 1_555
N6_7 C4_7 1_555 1_555
Zn2_7 N3_7 1_555 1_555
C7_7 N3_7 1_555 1_555
N4_7 Zn2_7 1_555 1_555
N6_7 Zn2_7 1_555 1_555
C2_7 H2_7 1_555 1_555
C3_7 H3_7 1_555 1_555
C11_7 H4_7 1_555 1_555
C8_7 H6_7 1_555 1_555
C4_7 H7_7 1_555 1_555
C7_7 H8_7 1_555 1_555
C5_7 H9_7 1_555 1_555
C6_7 H10_7 1_555 1_555
C12_7 H12_7 1_555 1_555
C1_7 N7_7 1_555 1_555
C9_7 C10_7 1_555 1_555
C10_7 N8_7 1_555 1_555
N7_7 C9_7 1_555 1_555
N8_7 C1_7 1_555 1_555
Zn4_2 N7_7 1_555 1_555
C1_7 H1_7 1_555 1_555
C10_7 H5_7 1_555 1_555
C9_7 H11_7 1_555 1_555
C3_8 N9_4 1_555 1_555
N9_4 C5_8 1_555 1_555
C3_8 H3_8 1_555 1_555
C5_8 H9_8 1_555 1_555
C1_8 N7_8 1_555 1_555
C2_8 N10_3 1_555 1_555
C4_8 N11_3 1_555 1_555
C6_8 N4_8 1_555 1_555
C7_8 C8_8 1_555 1_555
C8_8 N10_3 1_555 1_555
C9_8 C10_8 1_555 1_555
C10_8 N8_8 1_555 1_555
C11_8 C12_8 1_555 1_555
C12_8 N6_8 1_555 1_555
N3_8 C2_8 1_555 1_555
N11_3 C11_8 1_555 1_555
N6_8 C4_8 1_555 1_555
N7_8 C9_8 1_555 1_555
N8_8 C1_8 1_555 1_555
Zn3_2 N7_8 1_555 1_555
Zn2_8 N3_8 1_555 1_555
C7_8 N3_8 1_555 1_555
N4_8 Zn2_8 1_555 1_555
N6_8 Zn2_8 1_555 1_555
N8_8 Zn2_8 1_555 1_555
C1_8 H1_8 1_555 1_555
C2_8 H2_8 1_555 1_555
C11_8 H4_8 1_555 1_555
C10_8 H5_8 1_555 1_555
C8_8 H6_8 1_555 1_555
C4_8 H7_8 1_555 1_555
C7_8 H8_8 1_555 1_555
C6_8 H10_8 1_555 1_555
C9_8 H11_8 1_555 1_555
C12_8 H12_8 1_555 1_555

#END
