
###############################################################################
#
# This file contains modified crystal structure data generated from the
# MOF subset of the Cambridge Structural Database (CSD) v543 
# hosted by the Cambridge Crystallographic Data Centre (CCDC).
#
# This work is licensed under the Creative Commons
# Attribution-NonCommercial-ShareAlike 4.0 International License.
# To view a copy of this license, visit
# http://creativecommons.org/licenses/by-nc-sa/4.0/
# or send a letter to
# Creative Commons, PO Box 1866, Mountain View, CA 94042, USA.
#
# CIF created using the CSD Python API on 29 September 2022
# The structure has been converted into the P1 space group
# The structure has a 3D framework
# The original CSD entry ZEFLAZ is in the monoclinic crystal system
# The framework has been calculated to contain at least 10.0% void space
# The void calculation uses a probe of radius 1.32A, grid spacing 0.4
#
###############################################################################

data_ZEFLAZ
_chemical_formula_moiety         '(C96 H56 Br16 Co8 N16 O35)n'
_symmetry_cell_setting           triclinic
_symmetry_space_group_name_H-M   'P 1'
_symmetry_Int_Tables_number      1
_space_group_name_Hall           'P 1'
loop_
_symmetry_equiv_pos_site_id
_symmetry_equiv_pos_as_xyz
1 x,y,z
_cell_length_a                   15.0926(18)
_cell_length_b                   16.9747(18)
_cell_length_c                   14.4400(16)
_cell_angle_alpha                90
_cell_angle_beta                 120.52(4)
_cell_angle_gamma                90
_cell_volume                     3186.87
loop_
_atom_site_label
_atom_site_type_symbol
_atom_site_fract_x
_atom_site_fract_y
_atom_site_fract_z
Co1 Co 0.40962(11) 0.12337(9) 0.29240(11)
Br2 Br 0.67375(14) 0.15231(12) 0.89262(12)
O1 O 0.3322(5) 0.0812(5) 0.1332(6)
O2 O 0.4906(5) 0.1759(4) 0.4508(6)
O3 O 0.5909(6) 0.2632(5) 0.4278(6)
O4 O 0.4750(6) 0.0393(5) 0.1388(6)
N2 N 0.7876(7) 0.2922(5) 0.7461(7)
C2 C 0.7208(9) 0.2798(7) 0.6414(8)
H2 H 0.7327 0.3040 0.5909
C4 C 0.6346(9) 0.2322(6) 0.6052(8)
C6 C 0.6178(10) 0.1926(8) 0.6790(10)
H4 H 0.5621 0.1589 0.6573
C8 C 0.6888(10) 0.2060(8) 0.7875(9)
C10 C 0.7709(10) 0.2546(7) 0.8177(10)
H6 H 0.8170 0.2621 0.8906
C11 C 0.3812(9) 0.0514(6) 0.0928(9)
C12 C 0.5657(9) 0.2230(7) 0.4853(9)
O5 O 0.5000 0.1930(6) 0.2500
H7 H 0.4552 0.2266 0.1899
Co2 Co 0.59038(11) 0.12337(9) 0.20760(11)
Co4 Co 0.90962(11) 0.37663(9) 0.79240(11)
Br3 Br 0.92520(10) 0.09838(10) 0.81628(10)
Br4 Br 0.17375(14) 0.34769(12) 0.39262(12)
O6 O 0.6678(5) 0.0812(5) 0.3668(6)
O8 O 0.5094(5) 0.1759(4) 0.0492(6)
O10 O 0.5250(6) 0.0393(5) 0.3612(6)
N4 N 0.3247(6) 0.0459(5) 0.3358(7)
N5 N 0.6753(6) 0.0459(5) 0.1642(7)
N6 N 0.2876(7) 0.2078(5) 0.2461(7)
N7 N 0.7124(7) 0.2078(5) 0.2539(7)
C14 C 0.2208(9) 0.2202(7) 0.1414(8)
H9 H 0.2327 0.1960 0.0909
C15 C 0.6778(8) 0.0286(6) 0.5235(8)
C16 C 0.1346(9) 0.2678(6) 0.1052(8)
C17 C 0.7718(8) 0.0631(7) 0.6001(9)
H10 H 0.8071 0.0968 0.5793
C18 C 0.1178(10) 0.3074(8) 0.1790(10)
H11 H 0.0621 0.3411 0.1573
C19 C 0.8096(8) 0.0452(7) 0.7068(8)
C20 C 0.1888(10) 0.2940(8) 0.2875(9)
C22 C 0.2709(10) 0.2454(7) 0.3177(10)
H13 H 0.3170 0.2379 0.3906
C23 C 0.6188(9) 0.0514(6) 0.4072(9)
H14 H 0.5448 0.2266 0.3101
Br1 Br 0.07480(10) 0.09838(10) 0.68372(10)
C3 C 0.3222(8) 0.0286(6) 0.9765(8)
C5 C 0.2282(8) 0.0631(7) 0.8999(9)
H3 H 0.1929 0.0968 0.9207
C7 C 0.1904(8) 0.0452(7) 0.7932(8)
O9 O 0.0909(6) 0.2368(5) 0.9278(6)
C24 C 0.0657(9) 0.2770(7) 0.9853(9)
Co5 Co 0.59038(11) 0.87663(9) 0.70760(11)
N3 N 0.6753(6) 0.9541(5) 0.6642(7)
C13 C 0.6349(9) 0.9725(7) 0.5602(8)
H8 H 0.5753 0.9468 0.5098
C21 C 0.7615(9) 0.9900(7) 0.7357(9)
H12 H 0.7903 0.9773 0.8080
N1 N 0.3247(6) 0.9541(5) 0.8358(7)
C1 C 0.3651(9) 0.9725(7) 0.9398(8)
H1 H 0.4247 0.9468 0.9902
C9 C 0.2385(9) 0.9900(7) 0.7643(9)
H5 H 0.2097 0.9773 0.6920
Co3 Co 0.40962(11) 0.87663(9) 0.79240(11)
O7 O 0.9906(5) 0.3241(4) 0.9508(6)
Co6 Co 0.09038(11) 0.37663(9) 0.70760(11)
O7_2 O 0.0094(5) 0.3241(4) 0.5492(6)
O3_2 O 0.4091(6) 0.2632(5) 0.0722(6)
C12_2 C 0.4343(9) 0.2230(7) 0.0147(9)
Br4_2 Br 0.82625(14) 0.34769(12) 0.10738(12)
O9_2 O 0.9091(6) 0.2368(5) 0.5722(6)
C14_2 C 0.7792(9) 0.2202(7) 0.3586(8)
H9_2 H 0.7673 0.1960 0.4091
C16_2 C 0.8654(9) 0.2678(6) 0.3948(8)
C18_2 C 0.8822(10) 0.3074(8) 0.3210(10)
H11_2 H 0.9379 0.3411 0.3427
C20_2 C 0.8112(10) 0.2940(8) 0.2125(9)
C22_2 C 0.7291(10) 0.2454(7) 0.1823(10)
H13_2 H 0.6830 0.2379 0.1094
C24_2 C 0.9343(9) 0.2770(7) 0.5147(9)
Br2_2 Br 0.32625(14) 0.15231(12) 0.60738(12)
N2_2 N 0.2124(7) 0.2922(5) 0.7539(7)
C2_2 C 0.2792(9) 0.2798(7) 0.8586(8)
H2_2 H 0.2673 0.3040 0.9091
C4_2 C 0.3654(9) 0.2322(6) 0.8948(8)
C6_2 C 0.3822(10) 0.1926(8) 0.8210(10)
H4_2 H 0.4379 0.1589 0.8427
C8_2 C 0.3112(10) 0.2060(8) 0.7125(9)
C10_2 C 0.2291(10) 0.2546(7) 0.6823(10)
H6_2 H 0.1830 0.2621 0.6094
Br2_3 Br 0.17375(14) 0.65231(12) 0.89262(12)
O3_3 O 0.0909(6) 0.7632(5) 0.4278(6)
N2_3 N 0.2876(7) 0.7922(5) 0.7461(7)
C2_3 C 0.2208(9) 0.7798(7) 0.6414(8)
H2_3 H 0.2327 0.8040 0.5909
C4_3 C 0.1346(9) 0.7322(6) 0.6052(8)
C6_3 C 0.1178(10) 0.6926(8) 0.6790(10)
H4_3 H 0.0621 0.6589 0.6573
C8_3 C 0.1888(10) 0.7060(8) 0.7875(9)
C10_3 C 0.2709(10) 0.7546(7) 0.8177(10)
H6_3 H 0.3170 0.7621 0.8906
C12_3 C 0.0657(9) 0.7230(7) 0.4853(9)
O5_2 O 0.0000 0.6930(6) 0.2500
Co2_2 Co 0.09038(11) 0.62337(9) 0.20760(11)
Br3_2 Br 0.42520(10) 0.59838(10) 0.81628(10)
O6_2 O 0.1678(5) 0.5812(5) 0.3668(6)
O8_2 O 0.0094(5) 0.6759(4) 0.0492(6)
O10_2 O 0.0250(6) 0.5393(5) 0.3612(6)
N3_2 N 0.1753(6) 0.4541(5) 0.6642(7)
N5_2 N 0.1753(6) 0.5459(5) 0.1642(7)
N7_2 N 0.2124(7) 0.7078(5) 0.2539(7)
C13_2 C 0.1349(9) 0.4725(7) 0.5602(8)
H8_2 H 0.0753 0.4468 0.5098
C15_2 C 0.1778(8) 0.5286(6) 0.5235(8)
C17_2 C 0.2718(8) 0.5631(7) 0.6001(9)
H10_2 H 0.3071 0.5968 0.5793
C19_2 C 0.3096(8) 0.5452(7) 0.7068(8)
C21_2 C 0.2615(9) 0.4900(7) 0.7357(9)
H12_2 H 0.2903 0.4773 0.8080
C23_2 C 0.1188(9) 0.5514(6) 0.4072(9)
H14_2 H 0.0448 0.7266 0.3101
Co1_2 Co 0.90962(11) 0.62337(9) 0.29240(11)
O1_2 O 0.8322(5) 0.5812(5) 0.1332(6)
O2_2 O 0.9906(5) 0.6759(4) 0.4508(6)
O4_2 O 0.9750(6) 0.5393(5) 0.1388(6)
C11_2 C 0.8812(9) 0.5514(6) 0.0928(9)
O5_3 O 1.0000 0.6930(6) 0.2500
H7_2 H 0.9552 0.7266 0.1899
Br4_3 Br 0.67375(14) 0.84769(12) 0.39262(12)
N4_2 N 0.8247(6) 0.5459(5) 0.3358(7)
N6_2 N 0.7876(7) 0.7078(5) 0.2461(7)
C14_3 C 0.7208(9) 0.7202(7) 0.1414(8)
H9_3 H 0.7327 0.6960 0.0909
C16_3 C 0.6346(9) 0.7678(6) 0.1052(8)
C18_3 C 0.6178(10) 0.8074(8) 0.1790(10)
H11_3 H 0.5621 0.8411 0.1573
C20_3 C 0.6888(10) 0.7940(8) 0.2875(9)
C22_3 C 0.7709(10) 0.7454(7) 0.3177(10)
H13_3 H 0.8170 0.7379 0.3906
Br1_2 Br 0.57480(10) 0.59838(10) 0.68372(10)
N1_2 N 0.8247(6) 0.4541(5) 0.8358(7)
C1_2 C 0.8651(9) 0.4725(7) 0.9398(8)
H1_2 H 0.9247 0.4468 0.9902
C3_2 C 0.8222(8) 0.5286(6) 0.9765(8)
C5_2 C 0.7282(8) 0.5631(7) 0.8999(9)
H3_2 H 0.6929 0.5968 0.9207
C7_2 C 0.6904(8) 0.5452(7) 0.7932(8)
C9_2 C 0.7385(9) 0.4900(7) 0.7643(9)
H5_2 H 0.7097 0.4773 0.6920
O7_3 O 0.4906(5) 0.8241(4) 0.9508(6)
O9_3 O 0.5909(6) 0.7368(5) 0.9278(6)
C24_3 C 0.5657(9) 0.7770(7) 0.9853(9)
Br4_4 Br 0.32625(14) 0.84769(12) 0.10738(12)
O7_4 O 0.5094(5) 0.8241(4) 0.5492(6)
O9_4 O 0.4091(6) 0.7368(5) 0.5722(6)
C14_4 C 0.2792(9) 0.7202(7) 0.3586(8)
H9_4 H 0.2673 0.6960 0.4091
C16_4 C 0.3654(9) 0.7678(6) 0.3948(8)
C18_4 C 0.3822(10) 0.8074(8) 0.3210(10)
H11_4 H 0.4379 0.8411 0.3427
C20_4 C 0.3112(10) 0.7940(8) 0.2125(9)
C22_4 C 0.2291(10) 0.7454(7) 0.1823(10)
H13_4 H 0.1830 0.7379 0.1094
C24_4 C 0.4343(9) 0.7770(7) 0.5147(9)
O3_4 O 0.9091(6) 0.7632(5) 0.0722(6)
C12_4 C 0.9343(9) 0.7230(7) 0.0147(9)
Br2_4 Br 0.82625(14) 0.65231(12) 0.60738(12)
N2_4 N 0.7124(7) 0.7922(5) 0.7539(7)
C2_4 C 0.7792(9) 0.7798(7) 0.8586(8)
H2_4 H 0.7673 0.8040 0.9091
C4_4 C 0.8654(9) 0.7322(6) 0.8948(8)
C6_4 C 0.8822(10) 0.6926(8) 0.8210(10)
H4_4 H 0.9379 0.6589 0.8427
C8_4 C 0.8112(10) 0.7060(8) 0.7125(9)
C10_4 C 0.7291(10) 0.7546(7) 0.6823(10)
H6_4 H 0.6830 0.7621 0.6094
C1_3 C 0.6349(9) 0.0275(7) 0.0602(8)
H1_3 H 0.5753 0.0532 0.0098
C9_3 C 0.7615(9) 0.0100(7) 0.2357(9)
H5_3 H 0.7903 0.0227 0.3080
C13_3 C 0.3651(9) 0.0275(7) 0.4398(8)
H8_3 H 0.4247 0.0532 0.4902
C21_3 C 0.2385(9) 0.0100(7) 0.2643(9)
H12_3 H 0.2097 0.0227 0.1920
Br1_3 Br 0.92520(10) 0.90162(10) 0.31628(10)
C3_3 C 0.6778(8) 0.9714(6) 0.0235(8)
C5_3 C 0.7718(8) 0.9369(7) 0.1001(9)
H3_3 H 0.8071 0.9032 0.0793
C7_3 C 0.8096(8) 0.9548(7) 0.2068(8)
O1_3 O 0.6678(5) 0.9188(5) 0.8668(6)
O4_3 O 0.5250(6) 0.9607(5) 0.8612(6)
C11_3 C 0.6188(9) 0.9486(6) 0.9072(9)
O5_4 O 0.5000 0.8070(6) 0.7500
H7_3 H 0.5448 0.7734 0.8101
Br3_3 Br 0.07480(10) 0.90162(10) 0.18372(10)
O6_3 O 0.3322(5) 0.9188(5) 0.6332(6)
O10_3 O 0.4750(6) 0.9607(5) 0.6388(6)
C15_3 C 0.3222(8) 0.9714(6) 0.4765(8)
C17_3 C 0.2282(8) 0.9369(7) 0.3999(9)
H10_3 H 0.1929 0.9032 0.4207
C19_3 C 0.1904(8) 0.9548(7) 0.2932(8)
C23_3 C 0.3812(9) 0.9486(6) 0.5928(9)
H14_3 H 0.4552 0.7734 0.6899
Br1_4 Br 0.42520(10) 0.40162(10) 0.31628(10)
C1_4 C 0.1349(9) 0.5275(7) 0.0602(8)
H1_4 H 0.0753 0.5532 0.0098
C3_4 C 0.1778(8) 0.4714(6) 0.0235(8)
C5_4 C 0.2718(8) 0.4369(7) 0.1001(9)
H3_4 H 0.3071 0.4032 0.0793
C7_4 C 0.3096(8) 0.4548(7) 0.2068(8)
C9_4 C 0.2615(9) 0.5100(7) 0.2357(9)
H5_4 H 0.2903 0.5227 0.3080
O1_4 O 0.1678(5) 0.4188(5) 0.8668(6)
O4_4 O 0.0250(6) 0.4607(5) 0.8612(6)
C11_4 C 0.1188(9) 0.4486(6) 0.9072(9)
O5_5 O -0.0000 0.3070(6) 0.7500
H7_4 H 0.0448 0.2734 0.8101
O5_6 O 1.0000 0.3070(6) 0.7500
Br3_4 Br 0.57480(10) 0.40162(10) 0.18372(10)
O6_4 O 0.8322(5) 0.4188(5) 0.6332(6)
O10_4 O 0.9750(6) 0.4607(5) 0.6388(6)
C13_4 C 0.8651(9) 0.5275(7) 0.4398(8)
H8_4 H 0.9247 0.5532 0.4902
C15_4 C 0.8222(8) 0.4714(6) 0.4765(8)
C17_4 C 0.7282(8) 0.4369(7) 0.3999(9)
H10_4 H 0.6929 0.4032 0.4207
C19_4 C 0.6904(8) 0.4548(7) 0.2932(8)
C21_4 C 0.7385(9) 0.5100(7) 0.2643(9)
H12_4 H 0.7097 0.5227 0.1920
C23_4 C 0.8812(9) 0.4486(6) 0.5928(9)
H14_4 H 0.9552 0.2734 0.6899
loop_
_geom_bond_atom_site_label_1
_geom_bond_atom_site_label_2
_geom_bond_site_symmetry_1
_geom_bond_site_symmetry_2
Co1 O1 1_555 1_555
Br2 C8 1_555 1_555
O1 C11 1_555 1_555
O2 Co1 1_555 1_555
O3 C12 1_555 1_555
O4 C11 1_555 1_555
N2 C2 1_555 1_555
C2 H2 1_555 1_555
C4 C2 1_555 1_555
C6 C4 1_555 1_555
H4 C6 1_555 1_555
C8 C6 1_555 1_555
C10 N2 1_555 1_555
H6 C10 1_555 1_555
C12 O2 1_555 1_555
O5 Co1 1_555 1_555
H7 O5 1_555 1_555
Co2 O4 1_555 1_555
Co4 N2 1_555 1_555
Br3 C19 1_555 1_555
Br4 C20 1_555 1_555
O6 Co2 1_555 1_555
O8 Co2 1_555 1_555
O10 Co1 1_555 1_555
N4 Co1 1_555 1_555
N5 Co2 1_555 1_555
N6 Co1 1_555 1_555
N7 Co2 1_555 1_555
C14 N6 1_555 1_555
H9 C14 1_555 1_555
C16 C14 1_555 1_555
C17 C15 1_555 1_555
H10 C17 1_555 1_555
C18 C16 1_555 1_555
H11 C18 1_555 1_555
C19 C17 1_555 1_555
C20 C18 1_555 1_555
C22 N6 1_555 1_555
H13 C22 1_555 1_555
C23 O6 1_555 1_555
H14 O5 1_555 1_555
C4 C12 1_555 1_555
C8 C10 1_555 1_555
O5 Co2 1_555 1_555
O10 C23 1_555 1_555
C15 C23 1_555 1_555
C20 C22 1_555 1_555
Br1 C7 1_555 1_555
C5 C3 1_555 1_555
H3 C5 1_555 1_555
C7 C5 1_555 1_555
O9 C24 1_555 1_555
Co5 N3 1_555 1_555
N3 C13 1_555 1_555
C13 H8 1_555 1_555
C21 N3 1_555 1_555
H12 C21 1_555 1_555
N1 C1 1_555 1_555
C1 H1 1_555 1_555
C9 N1 1_555 1_555
H5 C9 1_555 1_555
Co3 N1 1_555 1_555
Co4 O7 1_555 1_555
Co6 O7_2 1_555 1_555
O3_2 C12_2 1_555 1_555
C12_2 O8 1_555 1_555
Br4_2 C20_2 1_555 1_555
O9_2 C24_2 1_555 1_555
C14_2 N7 1_555 1_555
H9_2 C14_2 1_555 1_555
C16_2 C14_2 1_555 1_555
C18_2 C16_2 1_555 1_555
H11_2 C18_2 1_555 1_555
C20_2 C18_2 1_555 1_555
C22_2 N7 1_555 1_555
H13_2 C22_2 1_555 1_555
C24_2 C16_2 1_555 1_555
C20_2 C22_2 1_555 1_555
Br2_2 C8_2 1_555 1_555
N2_2 C2_2 1_555 1_555
C2_2 H2_2 1_555 1_555
C4_2 C2_2 1_555 1_555
C6_2 C4_2 1_555 1_555
H4_2 C6_2 1_555 1_555
C8_2 C6_2 1_555 1_555
C10_2 N2_2 1_555 1_555
H6_2 C10_2 1_555 1_555
Co6 N2_2 1_555 1_555
C8_2 C10_2 1_555 1_555
Br2_3 C8_3 1_555 1_555
O3_3 C12_3 1_555 1_555
N2_3 C2_3 1_555 1_555
C2_3 H2_3 1_555 1_555
C4_3 C2_3 1_555 1_555
C6_3 C4_3 1_555 1_555
H4_3 C6_3 1_555 1_555
C8_3 C6_3 1_555 1_555
C10_3 N2_3 1_555 1_555
H6_3 C10_3 1_555 1_555
Co3 N2_3 1_555 1_555
Co6 N3_2 1_555 1_555
Br3_2 C19_2 1_555 1_555
O6_2 Co2_2 1_555 1_555
O8_2 Co2_2 1_555 1_555
N3_2 C13_2 1_555 1_555
N5_2 Co2_2 1_555 1_555
N7_2 Co2_2 1_555 1_555
C13_2 H8_2 1_555 1_555
C15_2 C13_2 1_555 1_555
C17_2 C15_2 1_555 1_555
H10_2 C17_2 1_555 1_555
C19_2 C17_2 1_555 1_555
C21_2 N3_2 1_555 1_555
H12_2 C21_2 1_555 1_555
C23_2 O6_2 1_555 1_555
H14_2 O5_2 1_555 1_555
C4_3 C12_3 1_555 1_555
C8_3 C10_3 1_555 1_555
O5_2 Co2_2 1_555 1_555
O10_2 C23_2 1_555 1_555
C15_2 C23_2 1_555 1_555
C19_2 C21_2 1_555 1_555
Co1_2 O1_2 1_555 1_555
O1_2 C11_2 1_555 1_555
O2_2 Co1_2 1_555 1_555
O4_2 C11_2 1_555 1_555
O5_3 Co1_2 1_555 1_555
H7_2 O5_3 1_555 1_555
Br4_3 C20_3 1_555 1_555
N4_2 Co1_2 1_555 1_555
N6_2 Co1_2 1_555 1_555
C14_3 N6_2 1_555 1_555
H9_3 C14_3 1_555 1_555
C16_3 C14_3 1_555 1_555
C18_3 C16_3 1_555 1_555
H11_3 C18_3 1_555 1_555
C20_3 C18_3 1_555 1_555
C22_3 N6_2 1_555 1_555
H13_3 C22_3 1_555 1_555
C20_3 C22_3 1_555 1_555
Br1_2 C7_2 1_555 1_555
N1_2 C1_2 1_555 1_555
C1_2 H1_2 1_555 1_555
C3_2 C1_2 1_555 1_555
C5_2 C3_2 1_555 1_555
H3_2 C5_2 1_555 1_555
C7_2 C5_2 1_555 1_555
C9_2 N1_2 1_555 1_555
H5_2 C9_2 1_555 1_555
Co4 N1_2 1_555 1_555
Co3 O7_3 1_555 1_555
O7_3 C24_3 1_555 1_555
O9_3 C24_3 1_555 1_555
C7_2 C9_2 1_555 1_555
Co5 O7_4 1_555 1_555
Br4_4 C20_4 1_555 1_555
O7_4 C24_4 1_555 1_555
O9_4 C24_4 1_555 1_555
C14_4 N7_2 1_555 1_555
H9_4 C14_4 1_555 1_555
C16_4 C14_4 1_555 1_555
C18_4 C16_4 1_555 1_555
H11_4 C18_4 1_555 1_555
C20_4 C18_4 1_555 1_555
C22_4 N7_2 1_555 1_555
H13_4 C22_4 1_555 1_555
C24_4 C16_4 1_555 1_555
C20_4 C22_4 1_555 1_555
O3_4 C12_4 1_555 1_555
Br2_4 C8_4 1_555 1_555
N2_4 C2_4 1_555 1_555
C2_4 H2_4 1_555 1_555
C4_4 C2_4 1_555 1_555
C6_4 C4_4 1_555 1_555
H4_4 C6_4 1_555 1_555
C8_4 C6_4 1_555 1_555
C10_4 N2_4 1_555 1_555
H6_4 C10_4 1_555 1_555
Co5 N2_4 1_555 1_555
C8_4 C10_4 1_555 1_555
N5 C1_3 1_555 1_555
C1_3 H1_3 1_555 1_555
C9_3 N5 1_555 1_555
H5_3 C9_3 1_555 1_555
N4 C13_3 1_555 1_555
C13_3 H8_3 1_555 1_555
C21_3 N4 1_555 1_555
H12_3 C21_3 1_555 1_555
Br1_3 C7_3 1_555 1_555
C5_3 C3_3 1_555 1_555
H3_3 C5_3 1_555 1_555
C7_3 C5_3 1_555 1_555
Co5 O1_3 1_555 1_555
O1_3 C11_3 1_555 1_555
O4_3 C11_3 1_555 1_555
O5_4 Co5 1_555 1_555
H7_3 O5_4 1_555 1_555
Co3 O4_3 1_555 1_555
Br3_3 C19_3 1_555 1_555
O6_3 Co3 1_555 1_555
O10_3 Co5 1_555 1_555
C17_3 C15_3 1_555 1_555
H10_3 C17_3 1_555 1_555
C19_3 C17_3 1_555 1_555
C23_3 O6_3 1_555 1_555
H14_3 O5_4 1_555 1_555
O5_4 Co3 1_555 1_555
O10_3 C23_3 1_555 1_555
C15_3 C23_3 1_555 1_555
Br1_4 C7_4 1_555 1_555
N5_2 C1_4 1_555 1_555
C1_4 H1_4 1_555 1_555
C3_4 C1_4 1_555 1_555
C5_4 C3_4 1_555 1_555
H3_4 C5_4 1_555 1_555
C7_4 C5_4 1_555 1_555
C9_4 N5_2 1_555 1_555
H5_4 C9_4 1_555 1_555
C7_4 C9_4 1_555 1_555
Co6 O1_4 1_555 1_555
O1_4 C11_4 1_555 1_555
O4_4 C11_4 1_555 1_555
O5_5 Co6 1_555 1_555
H7_4 O5_5 1_555 1_555
Br3_4 C19_4 1_555 1_555
O6_4 Co4 1_555 1_555
N4_2 C13_4 1_555 1_555
C13_4 H8_4 1_555 1_555
C15_4 C13_4 1_555 1_555
C17_4 C15_4 1_555 1_555
H10_4 C17_4 1_555 1_555
C19_4 C17_4 1_555 1_555
C21_4 N4_2 1_555 1_555
H12_4 C21_4 1_555 1_555
C23_4 O6_4 1_555 1_555
H14_4 O5_6 1_555 1_555
O5_6 Co4 1_555 1_555
O10_4 C23_4 1_555 1_555
C15_4 C23_4 1_555 1_555
C19_4 C21_4 1_555 1_555

#END
