
###############################################################################
#
# This file contains modified crystal structure data generated from the
# MOF subset of the Cambridge Structural Database (CSD) v543 
# hosted by the Cambridge Crystallographic Data Centre (CCDC).
#
# This work is licensed under the Creative Commons
# Attribution-NonCommercial-ShareAlike 4.0 International License.
# To view a copy of this license, visit
# http://creativecommons.org/licenses/by-nc-sa/4.0/
# or send a letter to
# Creative Commons, PO Box 1866, Mountain View, CA 94042, USA.
#
# CIF created using the CSD Python API on 29 September 2022
# The structure has been converted into the P1 space group
# The structure has a 3D framework
# The original CSD entry ZEFLED is in the monoclinic crystal system
# The framework has been calculated to contain at least 10.0% void space
# The void calculation uses a probe of radius 1.32A, grid spacing 0.4
# H atom positions have been added when not included in the experimental data
# Generated hydrogen atom positions removed from atoms on special positions
#
###############################################################################

data_ZEFLED
_chemical_formula_moiety         '(C112 H75 N8 O24 Zn6)n'
_symmetry_cell_setting           triclinic
_symmetry_space_group_name_H-M   'P 1'
_symmetry_Int_Tables_number      1
_space_group_name_Hall           'P 1'
loop_
_symmetry_equiv_pos_site_id
_symmetry_equiv_pos_as_xyz
1 x,y,z
_cell_length_a                   7.778(2)
_cell_length_b                   22.865(7)
_cell_length_c                   16.384(5)
_cell_angle_alpha                90
_cell_angle_beta                 99.471(5)
_cell_angle_gamma                90
_cell_volume                     2874.08
loop_
_atom_site_label
_atom_site_type_symbol
_atom_site_fract_x
_atom_site_fract_y
_atom_site_fract_z
H36 H 0.0588 0.0232 0.6167
Zn4 Zn 0.31477(3) 0.962448(12) 0.616330(15)
Zn9 Zn 0.07859(4) 0.444070(13) 0.813180(16)
O14 O 0.0742(4) 0.46115(16) 0.67451(18)
O18 O 0.0439(4) 0.88575(14) 0.77716(13)
O21 O 0.0946(2) 0.99011(8) 0.64445(11)
C38 C 0.0000(4) 0.41705(14) 0.51057(17)
H23 H 0.0552 0.4542 0.5182
Zn1 Zn 0.31477(3) 0.537552(12) 0.116330(15)
O1 O 0.1455(3) 0.62190(12) 0.02493(12)
N1 N 0.8257(3) 0.87756(9) 0.60769(12)
Zn2 Zn 0.92141(4) 0.944070(13) 0.686820(16)
N2 N 0.4084(3) 0.60215(10) 0.19875(12)
O8 O 0.0946(2) 0.50989(8) 0.14445(11)
C16 C 0.7187(4) 0.78957(13) 0.49305(18)
C17 C 0.6822(4) 0.84756(15) 0.47452(18)
H8 H 0.6206 0.8582 0.4216
C18 C 0.7354(4) 0.89040(13) 0.53326(16)
H9 H 0.7069 0.9301 0.5201
C19 C 0.8616(4) 0.82155(12) 0.62500(17)
H10 H 0.9260 0.8121 0.6778
C20 C 0.8111(4) 0.77717(13) 0.57122(19)
H11 H 0.8387 0.7379 0.5869
C21 C 0.6690(4) 0.73914(16) 0.4365(2)
H12 H 0.7027 0.7012 0.4567
C22 C 0.5866(5) 0.74290(16) 0.3645(2)
H13 H 0.5568 0.7810 0.3436
C23 C 0.5306(4) 0.69207(15) 0.3082(2)
C24 C 0.4355(5) 0.70384(16) 0.2327(2)
H14 H 0.4095 0.7431 0.2164
C25 C 0.3774(5) 0.65863(14) 0.1805(2)
H15 H 0.3111 0.6680 0.1281
C26 C 0.5040(4) 0.58975(14) 0.27167(16)
H16 H 0.5302 0.5501 0.2857
C27 C 0.5673(4) 0.63403(17) 0.32863(18)
H17 H 0.6344 0.6242 0.3806
C28 C 0.8357(3) 0.33911(11) 0.27103(14)
Zn8 Zn 0.92141(4) 0.555930(13) 0.186820(16)
O10 O 0.6828(3) 0.44886(9) 0.00245(10)
C29 C 0.9146(4) 0.31143(12) 0.21235(15)
H19 H 0.9815 0.2770 0.2261
O11 O 0.4524(2) 0.46307(7) 0.14121(11)
C30 C 0.8957(3) 0.33409(12) 0.13376(15)
H20 H 0.9502 0.3150 0.0933
O12 O 0.6905(2) 0.51595(7) 0.16020(11)
O13 O 0.6905(2) 0.98405(7) 0.66020(11)
C31 C 0.7983(3) 0.38453(11) 0.11222(13)
O15 O 0.9258(4) 0.96115(16) 0.82549(18)
C32 C 0.7209(3) 0.41258(10) 0.17229(13)
O17 O 0.9561(4) 0.38575(14) 0.72284(13)
C33 C 0.7384(3) 0.38965(11) 0.25218(13)
H21 H 0.6845 0.4084 0.2931
O20 O 0.8472(3) 0.31043(8) 0.34653(10)
C34 C 0.7794(3) 0.40508(12) 0.02381(14)
C35 C 0.6162(3) 0.46785(10) 0.15516(12)
C36 C 0.8849(3) 0.33939(12) 0.42144(14)
C37 C 0.9615(4) 0.39373(13) 0.43144(15)
H22 H 0.9875 0.4149 0.3851
C38_2 C 1.0000(4) 0.41705(14) 0.51057(17)
C39 C 0.9596(4) 0.38733(14) 0.57856(15)
C40 C 0.8844(4) 0.33210(15) 0.56659(16)
H24 H 0.8578 0.3109 0.6128
C41 C 0.8480(4) 0.30770(14) 0.48885(16)
H25 H 0.7982 0.2697 0.4814
C42 C 0.9996(5) 0.4137(2) 0.66385(19)
C1 C 0.1643(3) 0.66089(11) 0.72897(14)
O2 O 0.3172(3) 0.55114(9) 0.99755(10)
C2 C 0.0854(4) 0.68857(12) 0.78765(15)
H1 H 0.0185 0.7230 0.7739
O3 O 0.5476(2) 0.53693(7) 0.85879(11)
C3 C 0.1043(3) 0.66591(12) 0.86624(15)
H2 H 0.0498 0.6850 0.9067
O4 O 0.3095(2) 0.48405(7) 0.83980(11)
C4 C 0.2017(3) 0.61547(11) 0.88778(13)
C5 C 0.2791(3) 0.58742(10) 0.82771(13)
O6 O 0.0439(4) 0.61425(14) 0.27716(13)
C6 C 0.2616(3) 0.61035(11) 0.74782(13)
H3 H 0.3155 0.5916 0.7069
O7 O 0.1528(3) 0.68957(8) 0.65347(10)
C7 C 0.2206(3) 0.59492(12) 0.97619(14)
C8 C 0.3838(3) 0.53215(10) 0.84484(12)
C9 C 0.1151(3) 0.66061(12) 0.57856(14)
C10 C 0.0385(4) 0.60627(13) 0.56856(15)
H4 H 0.0125 0.5851 0.6149
C11 C 0.0000(4) 0.58295(14) 0.48943(17)
C12 C 0.0404(4) 0.61267(14) 0.42144(15)
C13 C 0.1156(4) 0.66790(15) 0.43341(16)
H6 H 0.1422 0.6891 0.3872
C14 C 0.1520(4) 0.69230(14) 0.51115(16)
H7 H 0.2018 0.7303 0.5186
C15 C 0.0004(5) 0.5863(2) 0.33615(19)
Zn3 Zn 0.68523(3) 0.462448(12) 0.883670(15)
O9 O 0.8545(3) 0.37810(12) 0.97507(12)
N3 N 0.1743(3) 0.12244(9) 0.39231(12)
N4 N 0.1743(3) 0.37756(9) 0.89231(12)
Zn10 Zn 0.07859(4) 0.055930(13) 0.313180(16)
N5 N 0.5916(3) 0.39785(10) 0.80125(12)
O22 O 0.9054(2) 0.49011(8) 0.85555(11)
C43 C 0.2813(4) 0.21043(13) 0.50695(18)
C44 C 0.3178(4) 0.15244(15) 0.52548(18)
H26 H 0.3794 0.1418 0.5784
C45 C 0.2646(4) 0.10960(13) 0.46674(16)
H27 H 0.2931 0.0699 0.4799
C46 C 0.1384(4) 0.17845(12) 0.37500(17)
H28 H 0.0740 0.1879 0.3222
C47 C 0.1889(4) 0.22283(13) 0.42878(19)
H29 H 0.1613 0.2621 0.4131
C48 C 0.3310(4) 0.26086(16) 0.5635(2)
H30 H 0.2973 0.2988 0.5433
C49 C 0.4134(5) 0.25710(16) 0.6355(2)
H31 H 0.4432 0.2190 0.6564
C50 C 0.4694(4) 0.30793(15) 0.6918(2)
C51 C 0.5645(5) 0.29616(16) 0.7673(2)
H32 H 0.5905 0.2569 0.7836
C52 C 0.6226(5) 0.34137(14) 0.8195(2)
H33 H 0.6889 0.3320 0.8719
C53 C 0.4960(4) 0.41025(14) 0.72833(16)
H34 H 0.4698 0.4499 0.7143
C54 C 0.4327(4) 0.36597(17) 0.67137(18)
H35 H 0.3656 0.3758 0.6194
O5 O 0.9258(4) 0.53885(16) 0.32549(18)
C11_2 C 1.0000(4) 0.58295(14) 0.48943(17)
H5 H 0.9448 0.5458 0.4818
O5_2 O 0.0742(4) 0.03885(16) 0.17451(18)
C11_3 C 0.0000(4) 0.08295(14) 0.01057(17)
H5_2 H 0.0552 0.0458 0.0182
H39 H 0.148286 0.964767 0.606329
O6_2 O 0.9561(4) 0.11425(14) 0.22284(13)
C11_4 C 1.0000(4) 0.08295(14) 0.01057(17)
C12_2 C 0.9596(4) 0.11267(14) 0.07856(15)
C13_2 C 0.8844(4) 0.16790(15) 0.06659(16)
H6_2 H 0.8578 0.1891 0.1128
C15_2 C 0.9996(5) 0.0863(2) 0.16385(19)
Zn1_2 Zn 0.68523(3) 0.037552(12) 0.383670(15)
O1_2 O 0.8545(3) 0.12190(12) 0.47507(12)
C1_2 C 0.8357(3) 0.16089(11) 0.77103(14)
O2_2 O 0.6828(3) 0.05114(9) 0.50245(10)
N2_2 N 0.5916(3) 0.10215(10) 0.30125(12)
C2_2 C 0.9146(4) 0.18857(12) 0.71235(15)
H1_2 H 0.9815 0.2230 0.7261
O3_2 O 0.4524(2) 0.03693(7) 0.64121(11)
C3_2 C 0.8957(3) 0.16591(12) 0.63376(15)
H2_2 H 0.9502 0.1850 0.5933
C4_2 C 0.7983(3) 0.11547(11) 0.61222(13)
C5_2 C 0.7209(3) 0.08742(10) 0.67229(13)
C6_2 C 0.7384(3) 0.11035(11) 0.75218(13)
H3_2 H 0.6845 0.0916 0.7931
O7_2 O 0.8472(3) 0.18957(8) 0.84653(10)
C7_2 C 0.7794(3) 0.09492(12) 0.52381(14)
O8_2 O 0.9054(2) 0.00989(8) 0.35555(11)
C8_2 C 0.6162(3) 0.03215(10) 0.65516(12)
C9_2 C 0.8849(3) 0.16061(12) 0.92144(14)
C10_2 C 0.9615(4) 0.10627(13) 0.93144(15)
H4_2 H 0.9875 0.0851 0.8851
C14_2 C 0.8480(4) 0.19230(14) 0.98885(16)
H7_2 H 0.7982 0.2303 0.9814
C16_2 C 0.2813(4) 0.28957(13) 0.00695(18)
C17_2 C 0.3178(4) 0.34756(15) 0.02548(18)
H8_2 H 0.3794 0.3582 0.0784
C21_2 C 0.3310(4) 0.23914(16) 0.0635(2)
H12_2 H 0.2973 0.2012 0.0433
C22_2 C 0.4134(5) 0.24290(16) 0.1355(2)
H13_2 H 0.4432 0.2810 0.1564
C23_2 C 0.4694(4) 0.19207(15) 0.1918(2)
C24_2 C 0.5645(5) 0.20384(16) 0.2673(2)
H14_2 H 0.5905 0.2431 0.2836
C25_2 C 0.6226(5) 0.15863(14) 0.3195(2)
H15_2 H 0.6889 0.1680 0.3719
C26_2 C 0.4960(4) 0.08975(14) 0.22833(16)
H16_2 H 0.4698 0.0501 0.2143
C27_2 C 0.4327(4) 0.13403(17) 0.17137(18)
H17_2 H 0.3656 0.1242 0.1194
O12_2 O 0.3095(2) 0.01595(7) 0.33980(11)
C18_2 C 0.2646(4) 0.39040(13) 0.96674(16)
H9_2 H 0.2931 0.4301 0.9799
C19_2 C 0.1384(4) 0.32155(12) 0.87500(17)
H10_2 H 0.0740 0.3121 0.8222
C20_2 C 0.1889(4) 0.27717(13) 0.92878(19)
H11_2 H 0.1613 0.2379 0.9131
N3_2 N 0.8257(3) 0.62244(9) 0.10769(12)
C45_2 C 0.7354(4) 0.60960(13) 0.03326(16)
H27_2 H 0.7069 0.5699 0.0201
C46_2 C 0.8616(4) 0.67845(12) 0.12500(17)
H28_2 H 0.9260 0.6879 0.1778
C47_2 C 0.8111(4) 0.72283(13) 0.07122(19)
H29_2 H 0.8387 0.7621 0.0869
H18 H 0.9412 0.9768 0.3833
O9_2 O 0.1455(3) 0.87810(12) 0.52493(12)
C28_2 C 0.1643(3) 0.83911(11) 0.22897(14)
O10_2 O 0.3172(3) 0.94886(9) 0.49755(10)
N5_2 N 0.4084(3) 0.89785(10) 0.69875(12)
C29_2 C 0.0854(4) 0.81143(12) 0.28765(15)
H19_2 H 0.0185 0.7770 0.2739
O11_2 O 0.5476(2) 0.96307(7) 0.35879(11)
C30_2 C 0.1043(3) 0.83409(12) 0.36624(15)
H20_2 H 0.0498 0.8150 0.4067
C31_2 C 0.2017(3) 0.88453(11) 0.38778(13)
C32_2 C 0.2791(3) 0.91258(10) 0.32771(13)
C33_2 C 0.2616(3) 0.88965(11) 0.24782(13)
H21_2 H 0.3155 0.9084 0.2069
O20_2 O 0.1528(3) 0.81043(8) 0.15347(10)
C34_2 C 0.2206(3) 0.90508(12) 0.47619(14)
C35_2 C 0.3838(3) 0.96785(10) 0.34484(12)
C36_2 C 0.1151(3) 0.83939(12) 0.07856(14)
C37_2 C 0.0385(4) 0.89373(13) 0.06856(15)
H22_2 H 0.0125 0.9149 0.1149
C41_2 C 0.1520(4) 0.80770(14) 0.01115(16)
H25_2 H 0.2018 0.7697 0.0186
C43_2 C 0.7187(4) 0.71043(13) 0.99305(18)
C44_2 C 0.6822(4) 0.65244(15) 0.97452(18)
H26_2 H 0.6206 0.6418 0.9216
C48_2 C 0.6690(4) 0.76086(16) 0.9365(2)
H30_2 H 0.7027 0.7988 0.9567
C49_2 C 0.5866(5) 0.75710(16) 0.8645(2)
H31_2 H 0.5568 0.7190 0.8436
C50_2 C 0.5306(4) 0.80793(15) 0.8082(2)
C51_2 C 0.4355(5) 0.79616(16) 0.7327(2)
H32_2 H 0.4095 0.7569 0.7164
C52_2 C 0.3774(5) 0.84137(14) 0.6805(2)
H33_2 H 0.3111 0.8320 0.6281
C53_2 C 0.5040(4) 0.91025(14) 0.77167(16)
H34_2 H 0.5302 0.9499 0.7857
C54_2 C 0.5673(4) 0.86597(17) 0.82863(18)
H35_2 H 0.6344 0.8758 0.8806
H40 H 0.110247 0.998028 0.704812
C38_3 C 0.0000(4) 0.91705(14) 0.98943(17)
C39_2 C 0.0404(4) 0.88733(14) 0.92144(15)
C40_2 C 0.1156(4) 0.83210(15) 0.93341(16)
H24_2 H 0.1422 0.8109 0.8872
C42_2 C 0.0004(5) 0.9137(2) 0.83615(19)
C38_4 C 1.0000(4) 0.91705(14) 0.98943(17)
H23_2 H 0.9448 0.9542 0.9818
H40_2 H 0.889753 0.00197219 0.295188
H39_2 H 0.851714 0.0352326 0.393671
loop_
_geom_bond_atom_site_label_1
_geom_bond_atom_site_label_2
_geom_bond_site_symmetry_1
_geom_bond_site_symmetry_2
Zn4 O21 1_555 1_555
Zn9 O14 1_555 1_555
H23 C38 1_555 1_555
N1 Zn2 1_555 1_555
Zn2 O13 1_555 1_555
N2 Zn1 1_555 1_555
O8 Zn1 1_555 1_555
C16 C17 1_555 1_555
C17 H8 1_555 1_555
C18 N1 1_555 1_555
H9 C18 1_555 1_555
C19 N1 1_555 1_555
H10 C19 1_555 1_555
C20 C16 1_555 1_555
H11 C20 1_555 1_555
C21 C16 1_555 1_555
H12 C21 1_555 1_555
C22 C21 1_555 1_555
H13 C22 1_555 1_555
C23 C22 1_555 1_555
C24 C23 1_555 1_555
H14 C24 1_555 1_555
C25 N2 1_555 1_555
H15 C25 1_555 1_555
C26 N2 1_555 1_555
H16 C26 1_555 1_555
C27 C23 1_555 1_555
H17 C27 1_555 1_555
C28 C29 1_555 1_555
Zn8 O12 1_555 1_555
C29 H19 1_555 1_555
O11 Zn1 1_555 1_555
C30 C29 1_555 1_555
H20 C30 1_555 1_555
O12 C35 1_555 1_555
C31 C30 1_555 1_555
O15 Zn2 1_555 1_555
C32 C31 1_555 1_555
C33 C28 1_555 1_555
H21 C33 1_555 1_555
O20 C28 1_555 1_555
C34 O10 1_555 1_555
C35 O11 1_555 1_555
C36 O20 1_555 1_555
C37 C36 1_555 1_555
H22 C37 1_555 1_555
C38_2 C37 1_555 1_555
C39 C38_2 1_555 1_555
C40 C39 1_555 1_555
H24 C40 1_555 1_555
C41 C36 1_555 1_555
H25 C41 1_555 1_555
C42 O17 1_555 1_555
C17 C18 1_555 1_555
C19 C20 1_555 1_555
C24 C25 1_555 1_555
C26 C27 1_555 1_555
C31 C34 1_555 1_555
C32 C33 1_555 1_555
C32 C35 1_555 1_555
C39 C42 1_555 1_555
C40 C41 1_555 1_555
C1 C2 1_555 1_555
O2 C7 1_555 1_555
C2 H1 1_555 1_555
O3 C8 1_555 1_555
C3 C2 1_555 1_555
H2 C3 1_555 1_555
O4 C8 1_555 1_555
C4 C3 1_555 1_555
C5 C4 1_555 1_555
O6 C15 1_555 1_555
C6 C1 1_555 1_555
H3 C6 1_555 1_555
O7 C1 1_555 1_555
C7 C4 1_555 1_555
C8 C5 1_555 1_555
C9 O7 1_555 1_555
C10 C9 1_555 1_555
H4 C10 1_555 1_555
C11 C10 1_555 1_555
C12 C11 1_555 1_555
C13 C12 1_555 1_555
H6 C13 1_555 1_555
C14 C9 1_555 1_555
H7 C14 1_555 1_555
C15 C12 1_555 1_555
Zn3 O3 1_555 1_555
N3 Zn10 1_555 1_555
N4 Zn9 1_555 1_555
Zn9 O4 1_555 1_555
N5 Zn3 1_555 1_555
O22 Zn3 1_555 1_555
C43 C44 1_555 1_555
C44 H26 1_555 1_555
C45 N3 1_555 1_555
H27 C45 1_555 1_555
C46 N3 1_555 1_555
H28 C46 1_555 1_555
C47 C43 1_555 1_555
H29 C47 1_555 1_555
C48 C43 1_555 1_555
H30 C48 1_555 1_555
C49 C48 1_555 1_555
H31 C49 1_555 1_555
C50 C49 1_555 1_555
C51 C50 1_555 1_555
H32 C51 1_555 1_555
C52 N5 1_555 1_555
H33 C52 1_555 1_555
C53 N5 1_555 1_555
H34 C53 1_555 1_555
C54 C50 1_555 1_555
H35 C54 1_555 1_555
C5 C6 1_555 1_555
C13 C14 1_555 1_555
C44 C45 1_555 1_555
C46 C47 1_555 1_555
C51 C52 1_555 1_555
C53 C54 1_555 1_555
H5 C11_2 1_555 1_555
Zn8 O5 1_555 1_555
H5_2 C11_3 1_555 1_555
Zn10 O5_2 1_555 1_555
O21 H39 1_555 1_555
O6_2 C15_2 1_555 1_555
C12_2 C11_4 1_555 1_555
C13_2 C12_2 1_555 1_555
H6_2 C13_2 1_555 1_555
C15_2 C12_2 1_555 1_555
Zn1_2 O2_2 1_555 1_555
O1_2 C7_2 1_555 1_555
C1_2 C2_2 1_555 1_555
O2_2 C7_2 1_555 1_555
N2_2 Zn1_2 1_555 1_555
C2_2 H1_2 1_555 1_555
O3_2 C8_2 1_555 1_555
C3_2 C2_2 1_555 1_555
H2_2 C3_2 1_555 1_555
C4_2 C3_2 1_555 1_555
C5_2 C4_2 1_555 1_555
C6_2 C1_2 1_555 1_555
H3_2 C6_2 1_555 1_555
O7_2 C1_2 1_555 1_555
C7_2 C4_2 1_555 1_555
O8_2 Zn1_2 1_555 1_555
C8_2 C5_2 1_555 1_555
C9_2 O7_2 1_555 1_555
C10_2 C9_2 1_555 1_555
H4_2 C10_2 1_555 1_555
C14_2 C9_2 1_555 1_555
H7_2 C14_2 1_555 1_555
C16_2 C17_2 1_555 1_555
C17_2 H8_2 1_555 1_555
C21_2 C16_2 1_555 1_555
H12_2 C21_2 1_555 1_555
C22_2 C21_2 1_555 1_555
H13_2 C22_2 1_555 1_555
C23_2 C22_2 1_555 1_555
C24_2 C23_2 1_555 1_555
H14_2 C24_2 1_555 1_555
C25_2 N2_2 1_555 1_555
H15_2 C25_2 1_555 1_555
C26_2 N2_2 1_555 1_555
H16_2 C26_2 1_555 1_555
C27_2 C23_2 1_555 1_555
H17_2 C27_2 1_555 1_555
Zn10 O12_2 1_555 1_555
C5_2 C6_2 1_555 1_555
C24_2 C25_2 1_555 1_555
C26_2 C27_2 1_555 1_555
C18_2 N4 1_555 1_555
H9_2 C18_2 1_555 1_555
C19_2 N4 1_555 1_555
H10_2 C19_2 1_555 1_555
H11_2 C20_2 1_555 1_555
C19_2 C20_2 1_555 1_555
N3_2 Zn8 1_555 1_555
C45_2 N3_2 1_555 1_555
H27_2 C45_2 1_555 1_555
C46_2 N3_2 1_555 1_555
H28_2 C46_2 1_555 1_555
H29_2 C47_2 1_555 1_555
C46_2 C47_2 1_555 1_555
O9_2 C34_2 1_555 1_555
C28_2 C29_2 1_555 1_555
O10_2 Zn4 1_555 1_555
N5_2 Zn4 1_555 1_555
C29_2 H19_2 1_555 1_555
C30_2 C29_2 1_555 1_555
H20_2 C30_2 1_555 1_555
C31_2 C30_2 1_555 1_555
C32_2 C31_2 1_555 1_555
C33_2 C28_2 1_555 1_555
H21_2 C33_2 1_555 1_555
O20_2 C28_2 1_555 1_555
C34_2 O10_2 1_555 1_555
C35_2 O11_2 1_555 1_555
C36_2 O20_2 1_555 1_555
C37_2 C36_2 1_555 1_555
H22_2 C37_2 1_555 1_555
C41_2 C36_2 1_555 1_555
H25_2 C41_2 1_555 1_555
C43_2 C44_2 1_555 1_555
C44_2 H26_2 1_555 1_555
C48_2 C43_2 1_555 1_555
H30_2 C48_2 1_555 1_555
C49_2 C48_2 1_555 1_555
H31_2 C49_2 1_555 1_555
C50_2 C49_2 1_555 1_555
C51_2 C50_2 1_555 1_555
H32_2 C51_2 1_555 1_555
C52_2 N5_2 1_555 1_555
H33_2 C52_2 1_555 1_555
C53_2 N5_2 1_555 1_555
H34_2 C53_2 1_555 1_555
C54_2 C50_2 1_555 1_555
H35_2 C54_2 1_555 1_555
C31_2 C34_2 1_555 1_555
C32_2 C33_2 1_555 1_555
C32_2 C35_2 1_555 1_555
C51_2 C52_2 1_555 1_555
C53_2 C54_2 1_555 1_555
O21 H40 1_555 1_555
C39_2 C38_3 1_555 1_555
C40_2 C39_2 1_555 1_555
H24_2 C40_2 1_555 1_555
C42_2 O18 1_555 1_555
C39_2 C42_2 1_555 1_555
H23_2 C38_4 1_555 1_555
O8_2 H40_2 1_555 1_555
O8_2 H39_2 1_555 1_555

#END
