
###############################################################################
#
# This file contains modified crystal structure data generated from the
# MOF subset of the Cambridge Structural Database (CSD) v543 
# hosted by the Cambridge Crystallographic Data Centre (CCDC).
#
# This work is licensed under the Creative Commons
# Attribution-NonCommercial-ShareAlike 4.0 International License.
# To view a copy of this license, visit
# http://creativecommons.org/licenses/by-nc-sa/4.0/
# or send a letter to
# Creative Commons, PO Box 1866, Mountain View, CA 94042, USA.
#
# CIF created using the CSD Python API on 29 September 2022
# The structure has been converted into the P1 space group
# The structure has a 3D framework
# The original CSD entry ZEFVIR is in the monoclinic crystal system
# The framework has been calculated to contain at least 10.0% void space
# The void calculation uses a probe of radius 1.32A, grid spacing 0.4
#
###############################################################################

data_ZEFVIR
_chemical_formula_moiety         '(C80 H40 Co12 N16 O48 Pr2)n'
_symmetry_cell_setting           triclinic
_symmetry_space_group_name_H-M   'P 1'
_symmetry_Int_Tables_number      1
_space_group_name_Hall           'P 1'
loop_
_symmetry_equiv_pos_site_id
_symmetry_equiv_pos_as_xyz
1 x,y,z
_cell_length_a                   10.477(2)
_cell_length_b                   7.6575(15)
_cell_length_c                   30.456(6)
_cell_angle_alpha                90
_cell_angle_beta                 99.06(3)
_cell_angle_gamma                90
_cell_volume                     2412.93
loop_
_atom_site_label
_atom_site_type_symbol
_atom_site_fract_x
_atom_site_fract_y
_atom_site_fract_z
N4 N 0.1507(3) 0.0741(4) 0.83851(11)
H8 H 0.1662 0.1871 0.8397
H17 H 0.0356 0.1059 0.9380
C3 C 0.4447(3) 0.3484(4) 0.13847(11)
C4 C 0.3268(3) 0.2450(4) 0.12055(10)
C5 C 0.2354(3) 0.3247(4) 0.08953(11)
H1 H 0.2436 0.4438 0.0817
C6 C 0.1308(3) 0.2250(4) 0.07005(11)
C7 C 0.1180(3) 0.0508(4) 0.08340(12)
C9 C 0.3159(3) 0.0673(4) 0.13221(10)
Co1 Co -0.0000 0.5000 -0.0000
N1 N 0.0261(3) 0.2683(4) 0.03830(10)
O5 O 0.5449(2) 0.3135(3) 0.12256(8)
O6 O 0.4337(2) 0.4710(3) 0.16508(8)
O7 O 0.4915(2) 0.0857(3) 0.19081(8)
Pr1 Pr 0.447930(15) 0.62847(2) 0.231790(5)
Co4 Co 0.71354(4) 0.44581(6) 0.130047(14)
O23 O 0.5085(2) 0.5857(3) 0.30919(8)
O26 O 0.4176(3) 0.8220(3) 0.16912(8)
O31 O 0.3568(2) 0.9107(3) 0.25702(8)
O32 O 0.6432(2) 0.4107(3) 0.24298(8)
O36 O 0.3617(2) 0.3144(3) 0.24943(8)
O37 O 0.6383(2) 0.8144(3) 0.25057(8)
O40 O 0.2256(2) 0.5306(3) 0.23103(9)
Pr3 Pr 0.552070(15) 0.12847(2) 0.268210(5)
C1 C 0.2098(3) 0.5297(4) 0.95545(12)
C2 C 0.1051(3) 0.4323(4) 0.92292(11)
C15 C 0.0420(3) 0.9947(4) 0.81607(11)
C16 C 0.0612(3) 0.8155(4) 0.82467(11)
C20 C 0.2293(4) 0.9483(5) 0.85838(13)
H6 H 0.3112 0.9714 0.8757
Co1_2 Co 0.0000 0.5000 1.0000
Co2 Co 0.28646(4) 0.55419(6) 0.869953(14)
N3 N 0.1810(3) 0.7897(4) 0.85137(10)
O1 O 0.0104(2) 0.3702(3) 0.93901(9)
O2 O 0.1966(2) 0.5356(4) 0.99585(8)
O3 O 0.1225(2) 0.4197(3) 0.88358(8)
O4 O 0.3004(2) 0.5948(4) 0.93892(9)
O13 O 0.3922(3) 0.3102(3) 0.88548(9)
H9 H 0.4445 0.2841 0.8678
H10 H 0.4299 0.3096 0.9122
C31 C 0.0476(4) 0.8713(4) 0.96595(13)
H13 H 0.1274 0.8777 0.9856
C32 C 0.2616(3) 0.5012(4) 0.76694(11)
C33 C 0.1567(3) 0.4396(4) 0.73044(10)
C34 C 0.0661(3) 0.5599(4) 0.71142(11)
H14 H 0.0771 0.6815 0.7169
C37 C 0.0331(3) 0.1961(4) 0.69267(11)
H15 H 0.0230 0.0751 0.6861
C38 C 0.1423(3) 0.2581(4) 0.71984(10)
C39 C 0.2473(3) 0.1311(4) 0.73495(11)
O19 O 0.4551(2) 0.6865(3) 0.87744(8)
O28 O 0.2470(2) 0.4604(3) 0.80515(8)
O30 O 0.3568(2) 0.5893(3) 0.75702(8)
O35 O 0.3617(2) 0.1856(3) 0.74943(8)
Pr7 Pr 0.447930(15) 0.87153(2) 0.731790(5)
Pr8 Pr 0.552070(15) 0.37153(2) 0.768210(5)
C8 C 0.2104(3) 0.9685(4) 0.11394(12)
H2 H 0.2017 0.8498 0.1220
C10 C 0.4159(3) 0.9863(4) 0.16637(11)
N2 N 0.0007(3) 0.9969(4) 0.06005(11)
O39 O 0.2256(2) 0.9694(3) 0.73103(9)
C12 C 0.7384(3) 0.0012(4) 0.73306(11)
C14 C 0.9339(3) 0.0599(4) 0.78858(11)
H4 H 0.9229 0.1815 0.7831
O10 O 0.6432(2) 0.0893(3) 0.74298(8)
C28 C 0.7896(3) 0.0315(4) 0.88606(12)
H12 H 0.7983 0.1502 0.8780
C30 C 0.5841(3) 0.0137(4) 0.83363(11)
Co5 Co 0.71354(4) 0.05419(6) 0.630047(14)
N6 N 0.9993(3) 0.0031(4) 0.93995(11)
O25 O 0.5824(3) 0.1780(3) 0.83088(8)
C11 C 0.9524(4) 0.1287(4) 0.03405(13)
H3 H 0.8726 0.1223 0.0144
Co1_3 Co 1.0000 0.5000 -0.0000
C21 C 0.7902(3) 0.4703(4) 0.04455(12)
C22 C 0.8949(3) 0.5677(4) 0.07708(11)
N8 N 0.8190(3) 0.2103(4) 0.14863(10)
O14 O 0.9896(2) 0.6298(3) 0.06099(9)
O15 O 0.8034(2) 0.4644(4) 0.00415(8)
O16 O 0.8775(2) 0.5803(3) 0.11642(8)
O17 O 0.6996(2) 0.4052(4) 0.06108(9)
O29 O 0.7530(2) 0.5396(3) 0.19485(8)
O41 O 0.6078(3) 0.6898(3) 0.11452(9)
H19 H 0.5555 0.7159 0.1322
H20 H 0.5701 0.6904 0.0878
C13 C 0.8433(3) 0.9396(4) 0.76956(10)
C17 C 0.9669(3) 0.6961(4) 0.80733(11)
H5 H 0.9770 0.5751 0.8139
C18 C 0.8577(3) 0.7581(4) 0.78016(10)
C19 C 0.7527(3) 0.6311(4) 0.76505(11)
Co1_4 Co 1.0000 0.5000 1.0000
O9 O 0.7530(2) 0.9604(3) 0.69485(8)
O11 O 0.6383(2) 0.6856(3) 0.75057(8)
O12 O 0.7744(2) 0.4694(3) 0.76897(9)
C23 C 0.5553(3) 0.6516(4) 0.86153(11)
C24 C 0.6732(3) 0.7550(4) 0.87945(10)
C25 C 0.7646(3) 0.6753(4) 0.91047(11)
H11 H 0.7564 0.5562 0.9183
C26 C 0.8692(3) 0.7750(4) 0.92995(11)
C27 C 0.8820(3) 0.9492(4) 0.91660(12)
C29 C 0.6841(3) 0.9327(4) 0.86779(10)
C35 C 0.9580(3) 0.4947(4) 0.68393(11)
C36 C 0.9388(3) 0.3155(4) 0.67533(11)
C40 C 0.7707(4) 0.4483(5) 0.64162(13)
H16 H 0.6888 0.4714 0.6243
N5 N 0.9739(3) 0.7317(4) 0.96170(10)
N7 N 0.8190(3) 0.2897(4) 0.64863(10)
N9 N 0.8493(3) 0.5741(4) 0.66149(11)
H18 H 0.8338 0.6871 0.6603
O21 O 0.5663(2) 0.5290(3) 0.83492(8)
O22 O 0.5085(2) 0.9143(3) 0.80919(8)
O24 O 0.4915(2) 0.4143(3) 0.69081(8)
H7 H 0.9644 0.8941 0.0620
Co1_5 Co 0.0000 0.0000 0.5000
C22_2 C 0.1051(3) 0.0677(4) 0.42292(11)
C23_2 C 0.4447(3) 0.1516(4) 0.63847(11)
C24_2 C 0.3268(3) 0.2550(4) 0.62055(10)
C25_2 C 0.2354(3) 0.1753(4) 0.58953(11)
H11_2 H 0.2436 0.0562 0.5817
C26_2 C 0.1308(3) 0.2750(4) 0.57005(11)
C27_2 C 0.1180(3) 0.4492(4) 0.58340(12)
C28_2 C 0.2104(3) 0.5315(4) 0.61394(12)
H12_2 H 0.2017 0.6502 0.6220
C29_2 C 0.3159(3) 0.4327(4) 0.63221(10)
C30_2 C 0.4159(3) 0.5137(4) 0.66637(11)
N5_2 N 0.0261(3) 0.2317(4) 0.53830(10)
N6_2 N 0.0007(3) 0.5031(4) 0.56005(11)
O14_2 O 0.0104(2) 0.1298(3) 0.43901(9)
O16_2 O 0.1225(2) 0.0803(3) 0.38358(8)
O18 O 0.5449(2) 0.1865(3) 0.62256(8)
O21_2 O 0.4337(2) 0.0290(3) 0.66508(8)
O25_2 O 0.4176(3) 0.6780(3) 0.66912(8)
O29_2 O 0.2470(2) 0.0396(3) 0.30515(8)
O41_2 O 0.3922(3) 0.1898(3) 0.38548(9)
H19_2 H 0.4445 0.2159 0.3678
H20_2 H 0.4299 0.1904 0.4122
C11_2 C 0.0476(4) 0.6287(4) 0.46595(13)
H3_2 H 0.1274 0.6223 0.4856
Co1_6 Co 0.0000 1.0000 0.5000
H7_2 H 0.0356 0.3941 0.4380
C21_2 C 0.2098(3) 0.9703(4) 0.45545(12)
Co3 Co 0.28646(4) 0.94581(6) 0.369953(14)
N8_2 N 0.1810(3) 0.7103(4) 0.35137(10)
O15_2 O 0.1966(2) 0.9644(4) 0.49585(8)
O17_2 O 0.3004(2) 0.9052(4) 0.43892(9)
O20 O 0.4551(2) 0.8135(3) 0.37744(8)
C1_2 C 0.7902(3) 0.0297(4) 0.54455(12)
Co1_7 Co 1.0000 0.0000 0.5000
O2_2 O 0.8034(2) 0.0356(4) 0.50415(8)
O4_2 O 0.6996(2) 0.0948(4) 0.56108(9)
C31_2 C 0.9524(4) 0.3713(4) 0.53405(13)
H13_2 H 0.8726 0.3777 0.5144
H17_2 H 0.9644 0.6059 0.5620
O26_2 O 0.5824(3) 0.3220(3) 0.33088(8)
O40_2 O 0.7744(2) 0.0306(3) 0.26897(9)
C2_2 C 0.8949(3) 0.9323(4) 0.57708(11)
C3_2 C 0.5553(3) 0.8484(4) 0.36153(11)
C4_2 C 0.6732(3) 0.7450(4) 0.37945(10)
C5_2 C 0.7646(3) 0.8247(4) 0.41047(11)
H1_2 H 0.7564 0.9438 0.4183
C6_2 C 0.8692(3) 0.7250(4) 0.42995(11)
C7_2 C 0.8820(3) 0.5508(4) 0.41660(12)
C8_2 C 0.7896(3) 0.4685(4) 0.38606(12)
H2_2 H 0.7983 0.3498 0.3780
C9_2 C 0.6841(3) 0.5673(4) 0.36779(10)
C10_2 C 0.5841(3) 0.4863(4) 0.33363(11)
Co1_8 Co 1.0000 1.0000 0.5000
N1_2 N 0.9739(3) 0.7683(4) 0.46170(10)
N2_2 N 0.9993(3) 0.4969(4) 0.43995(11)
O1_2 O 0.9896(2) 0.8702(3) 0.56099(9)
O3_2 O 0.8775(2) 0.9197(3) 0.61642(8)
O6_2 O 0.5663(2) 0.9710(3) 0.33492(8)
O13_2 O 0.6078(3) 0.8102(3) 0.61452(9)
H9_2 H 0.5555 0.7841 0.6322
H10_2 H 0.5701 0.8096 0.5878
C13_2 C 0.1567(3) 0.0604(4) 0.23044(10)
C17_2 C 0.0331(3) 0.3039(4) 0.19267(11)
H5_2 H 0.0230 0.4249 0.1861
C18_2 C 0.1423(3) 0.2419(4) 0.21984(10)
C19_2 C 0.2473(3) 0.3689(4) 0.23495(11)
C35_2 C 0.0420(3) 0.5053(4) 0.31607(11)
C36_2 C 0.0612(3) 0.6845(4) 0.32467(11)
C40_2 C 0.2293(4) 0.5517(5) 0.35838(13)
H16_2 H 0.3112 0.5286 0.3757
N9_2 N 0.1507(3) 0.4259(4) 0.33851(11)
H18_2 H 0.1662 0.3129 0.3397
C12_2 C 0.2616(3) 0.9988(4) 0.26694(11)
C14_2 C 0.0661(3) 0.9401(4) 0.21142(11)
H4_2 H 0.0771 0.8185 0.2169
C15_2 C 0.9580(3) 0.0053(4) 0.18393(11)
C16_2 C 0.9388(3) 0.1845(4) 0.17533(11)
C20_2 C 0.7707(4) 0.0517(5) 0.14162(13)
H6_2 H 0.6888 0.0286 0.1243
C32_2 C 0.7384(3) 0.4988(4) 0.23306(11)
C33_2 C 0.8433(3) 0.5604(4) 0.26956(10)
C34_2 C 0.9339(3) 0.4401(4) 0.28858(11)
H14_2 H 0.9229 0.3185 0.2831
C37_2 C 0.9669(3) 0.8039(4) 0.30733(11)
H15_2 H 0.9770 0.9249 0.3139
C38_2 C 0.8577(3) 0.7419(4) 0.28016(10)
C39_2 C 0.7527(3) 0.8689(4) 0.26505(11)
N4_2 N 0.8493(3) 0.9259(4) 0.16149(11)
H8_2 H 0.8338 0.8129 0.1603
loop_
_geom_bond_atom_site_label_1
_geom_bond_atom_site_label_2
_geom_bond_site_symmetry_1
_geom_bond_site_symmetry_2
H8 N4 1_555 1_555
C3 C4 1_555 1_555
C4 C5 1_555 1_555
C5 H1 1_555 1_555
C6 C5 1_555 1_555
C7 C6 1_555 1_555
C9 C4 1_555 1_555
Co1 N1 1_555 1_555
N1 C6 1_555 1_555
O5 C3 1_555 1_555
O6 C3 1_555 1_555
Pr1 O6 1_555 1_555
Co4 O5 1_555 1_555
O23 Pr1 1_555 1_555
O26 Pr1 1_555 1_555
O31 Pr1 1_555 1_555
O32 Pr1 1_555 1_555
O36 Pr1 1_555 1_555
O37 Pr1 1_555 1_555
O40 Pr1 1_555 1_555
Pr3 O7 1_555 1_555
O32 Pr3 1_555 1_555
O36 Pr3 1_555 1_555
C1 C2 1_555 1_555
C2 O1 1_555 1_555
C16 C15 1_555 1_555
C20 H6 1_555 1_555
Co2 N3 1_555 1_555
N3 C16 1_555 1_555
O1 Co1_2 1_555 1_555
O2 C1 1_555 1_555
O3 C2 1_555 1_555
O4 C1 1_555 1_555
O13 Co2 1_555 1_555
H9 O13 1_555 1_555
H10 O13 1_555 1_555
C31 H13 1_555 1_555
C32 C33 1_555 1_555
C33 C34 1_555 1_555
C34 H14 1_555 1_555
H15 C37 1_555 1_555
C38 C33 1_555 1_555
C39 C38 1_555 1_555
O19 Co2 1_555 1_555
O28 Co2 1_555 1_555
O30 C32 1_555 1_555
O35 C39 1_555 1_555
Pr7 O30 1_555 1_555
Pr8 O30 1_555 1_555
C20 N3 1_555 1_555
Co1_2 O2 1_555 1_555
Co2 O3 1_555 1_555
Co2 O4 1_555 1_555
C32 O28 1_555 1_555
C37 C38 1_555 1_555
O35 Pr8 1_555 1_555
H2 C8 1_555 1_555
O26 C10 1_555 1_555
O39 Pr7 1_555 1_555
C14 H4 1_555 1_555
O10 C12 1_555 1_555
H12 C28 1_555 1_555
O25 C30 1_555 1_555
Pr8 O10 1_555 1_555
O25 Pr8 1_555 1_555
C11 H3 1_555 1_555
C21 C22 1_555 1_555
C22 O14 1_555 1_555
Co4 N8 1_555 1_555
O14 Co1_3 1_555 1_555
O15 Co1_3 1_555 1_555
O16 C22 1_555 1_555
O17 C21 1_555 1_555
O29 Co4 1_555 1_555
O41 Co4 1_555 1_555
H19 O41 1_555 1_555
H20 O41 1_555 1_555
C21 O15 1_555 1_555
Co4 O16 1_555 1_555
Co4 O17 1_555 1_555
H5 C17 1_555 1_555
C18 C13 1_555 1_555
C19 C18 1_555 1_555
O11 C19 1_555 1_555
O12 C19 1_555 1_555
C23 C24 1_555 1_555
C24 C25 1_555 1_555
C25 H11 1_555 1_555
C26 C25 1_555 1_555
C27 C26 1_555 1_555
C29 C24 1_555 1_555
C36 C35 1_555 1_555
C40 H16 1_555 1_555
Co5 N7 1_555 1_555
N5 Co1_4 1_555 1_555
N7 C36 1_555 1_555
N9 C35 1_555 1_555
H18 N9 1_555 1_555
O19 C23 1_555 1_555
O21 C23 1_555 1_555
O24 Pr8 1_555 1_555
Pr8 O11 1_555 1_555
C17 C18 1_555 1_555
O11 Pr7 1_555 1_555
O12 Pr8 1_555 1_555
C26 N5 1_555 1_555
C40 N7 1_555 1_555
C40 N9 1_555 1_555
O21 Pr8 1_555 1_555
O22 Pr7 1_555 1_555
C22_2 O14_2 1_555 1_555
C23_2 C24_2 1_555 1_555
C24_2 C25_2 1_555 1_555
C25_2 H11_2 1_555 1_555
C26_2 C25_2 1_555 1_555
C27_2 C26_2 1_555 1_555
C28_2 C27_2 1_555 1_555
H12_2 C28_2 1_555 1_555
C29_2 C24_2 1_555 1_555
C30_2 C29_2 1_555 1_555
Co5 O18 1_555 1_555
N5_2 Co1_5 1_555 1_555
N6_2 C27_2 1_555 1_555
O14_2 Co1_5 1_555 1_555
O16_2 C22_2 1_555 1_555
O18 C23_2 1_555 1_555
O21_2 C23_2 1_555 1_555
O24 C30_2 1_555 1_555
O25_2 C30_2 1_555 1_555
H19_2 O41_2 1_555 1_555
H20_2 O41_2 1_555 1_555
C26_2 N5_2 1_555 1_555
C28_2 C29_2 1_555 1_555
O25_2 Pr7 1_555 1_555
C11_2 H3_2 1_555 1_555
Co3 N8_2 1_555 1_555
O15_2 Co1_6 1_555 1_555
O17_2 C21_2 1_555 1_555
O20 Co3 1_555 1_555
C21_2 O15_2 1_555 1_555
Co3 O17_2 1_555 1_555
O2_2 C1_2 1_555 1_555
O4_2 C1_2 1_555 1_555
C31_2 H13_2 1_555 1_555
O26_2 Pr3 1_555 1_555
O40_2 Pr3 1_555 1_555
Co1_7 O2_2 1_555 1_555
Co5 O4_2 1_555 1_555
C2_2 O1_2 1_555 1_555
C3_2 C4_2 1_555 1_555
C4_2 C5_2 1_555 1_555
C5_2 H1_2 1_555 1_555
C6_2 C5_2 1_555 1_555
C7_2 C6_2 1_555 1_555
C8_2 C7_2 1_555 1_555
H2_2 C8_2 1_555 1_555
C9_2 C4_2 1_555 1_555
C10_2 C9_2 1_555 1_555
Co1_8 N1_2 1_555 1_555
N1_2 C6_2 1_555 1_555
N2_2 C7_2 1_555 1_555
O1_2 Co1_8 1_555 1_555
O3_2 C2_2 1_555 1_555
O20 C3_2 1_555 1_555
O6_2 C3_2 1_555 1_555
O23 C10_2 1_555 1_555
O26_2 C10_2 1_555 1_555
H9_2 O13_2 1_555 1_555
H10_2 O13_2 1_555 1_555
C8_2 C9_2 1_555 1_555
H5_2 C17_2 1_555 1_555
C18_2 C13_2 1_555 1_555
C19_2 C18_2 1_555 1_555
O36 C19_2 1_555 1_555
O40 C19_2 1_555 1_555
C36_2 C35_2 1_555 1_555
C40_2 H16_2 1_555 1_555
N8_2 C36_2 1_555 1_555
N9_2 C35_2 1_555 1_555
H18_2 N9_2 1_555 1_555
C17_2 C18_2 1_555 1_555
C40_2 N8_2 1_555 1_555
C40_2 N9_2 1_555 1_555
C14_2 H4_2 1_555 1_555
O31 C12_2 1_555 1_555
C16_2 C15_2 1_555 1_555
C20_2 H6_2 1_555 1_555
N8 C16_2 1_555 1_555
C32_2 C33_2 1_555 1_555
C33_2 C34_2 1_555 1_555
C34_2 H14_2 1_555 1_555
H15_2 C37_2 1_555 1_555
C38_2 C33_2 1_555 1_555
C39_2 C38_2 1_555 1_555
O32 C32_2 1_555 1_555
O37 C39_2 1_555 1_555
C20_2 N8 1_555 1_555
C32_2 O29 1_555 1_555
C37_2 C38_2 1_555 1_555
H8_2 N4_2 1_555 1_555

#END
