
###############################################################################
#
# This file contains modified crystal structure data generated from the
# MOF subset of the Cambridge Structural Database (CSD) v543 
# hosted by the Cambridge Crystallographic Data Centre (CCDC).
#
# This work is licensed under the Creative Commons
# Attribution-NonCommercial-ShareAlike 4.0 International License.
# To view a copy of this license, visit
# http://creativecommons.org/licenses/by-nc-sa/4.0/
# or send a letter to
# Creative Commons, PO Box 1866, Mountain View, CA 94042, USA.
#
# CIF created using the CSD Python API on 29 September 2022
# The structure has been converted into the P1 space group
# The structure has a 3D framework
# The original CSD entry ZEFVOX is in the monoclinic crystal system
# The framework has been calculated to contain at least 10.0% void space
# The void calculation uses a probe of radius 1.32A, grid spacing 0.4
#
###############################################################################

data_ZEFVOX
_chemical_formula_moiety         '(C80 H40 Co14 N16 Nd3 O49)n'
_symmetry_cell_setting           triclinic
_symmetry_space_group_name_H-M   'P 1'
_symmetry_Int_Tables_number      1
_space_group_name_Hall           'P 1'
loop_
_symmetry_equiv_pos_site_id
_symmetry_equiv_pos_as_xyz
1 x,y,z
_cell_length_a                   10.467(2)
_cell_length_b                   7.6374(15)
_cell_length_c                   30.492(6)
_cell_angle_alpha                90
_cell_angle_beta                 99.05(3)
_cell_angle_gamma                90
_cell_volume                     2407.21
loop_
_atom_site_label
_atom_site_type_symbol
_atom_site_fract_x
_atom_site_fract_y
_atom_site_fract_z
Co1 Co 0.0000 -0.0000 0.0000
Nd1 Nd 0.448210(13) 0.128180(17) 0.231900(5)
O23 O 0.5087(2) 0.0862(3) 0.30887(7)
O26 O 0.4170(2) 0.3211(3) 0.16977(7)
O32 O 0.35833(18) 0.4101(3) 0.25723(7)
O37 O 0.63708(18) 0.3146(2) 0.25048(7)
O40 O 0.22682(19) 0.0313(3) 0.23093(8)
C1 C 0.2099(3) 0.0296(4) 0.95539(10)
C15 C 0.0414(3) 0.4948(4) 0.81588(10)
C16 C 0.0606(3) 0.3148(4) 0.82443(10)
C20 C 0.2286(3) 0.4479(4) 0.85846(12)
H6 H 0.3105 0.4706 0.8758
Co1_2 Co 0.0000 -0.0000 1.0000
Co2 Co 0.28631(4) 0.05381(5) 0.869886(13)
N3 N 0.1799(2) 0.2897(3) 0.85131(9)
N4 N 0.1500(3) 0.5748(3) 0.83856(10)
H8 H 0.1654 0.6881 0.8399
O2 O 0.1969(2) 0.0358(3) 0.99567(7)
O4 O 0.3004(2) 0.0946(3) 0.93879(8)
C31 C 0.0475(3) 0.3716(4) 0.96610(12)
H13 H 0.1272 0.3781 0.9858
C32 C 0.2622(3) 0.0017(3) 0.76696(10)
C34 C 0.0668(3) 0.0604(3) 0.71152(10)
H14 H 0.0777 0.1823 0.7170
H17 H 0.0351 0.6070 0.9377
Nd8 Nd 0.448210(13) 0.371820(17) 0.731900(5)
O19 O 0.45508(19) 0.1862(3) 0.87716(7)
O30 O 0.35833(18) 0.0899(3) 0.75723(7)
C3 C 0.4447(3) 0.8493(3) 0.13905(9)
C4 C 0.3270(3) 0.7448(3) 0.12091(9)
C5 C 0.2353(3) 0.8255(4) 0.08958(10)
H1 H 0.2435 0.9448 0.0817
C6 C 0.1313(3) 0.7249(4) 0.07027(10)
C7 C 0.1178(3) 0.5505(4) 0.08353(10)
C8 C 0.2095(3) 0.4681(4) 0.11414(10)
H2 H 0.2003 0.3491 0.1222
C9 C 0.3155(3) 0.5668(4) 0.13256(9)
C10 C 0.4151(3) 0.4865(4) 0.16680(9)
Co1_3 Co 0.0000 1.0000 0.0000
N1 N 0.0269(2) 0.7686(3) 0.03826(9)
N2 N 0.0011(3) 0.4961(3) 0.06023(10)
O5 O 0.54492(19) 0.8138(3) 0.12284(7)
O6 O 0.4344(2) 0.9708(3) 0.16553(7)
O7 O 0.4913(2) 0.5862(3) 0.19113(7)
Co4 Co 0.71369(4) 0.94619(5) 0.130114(13)
Nd3 Nd 0.551790(13) 0.628180(17) 0.268100(5)
O31 O 0.64167(18) 0.9101(3) 0.24277(7)
O36 O 0.36292(18) 0.8146(2) 0.24952(7)
C2 C 0.1049(3) 0.9323(4) 0.92279(10)
Co1_4 Co 0.0000 1.0000 1.0000
O1 O 0.0097(2) 0.8715(3) 0.93881(8)
O3 O 0.1222(2) 0.9197(3) 0.88354(7)
O13 O 0.3927(2) 0.8094(3) 0.88531(8)
H9 H 0.4355 0.8034 0.9112
H10 H 0.4443 0.7839 0.8674
C33 C 0.1579(2) 0.9399(3) 0.73042(9)
C37 C 0.0346(3) 0.6958(3) 0.69280(10)
H15 H 0.0251 0.5746 0.6861
C38 C 0.1432(2) 0.7581(3) 0.71984(9)
C39 C 0.2486(3) 0.6313(3) 0.73488(10)
Nd7 Nd 0.551790(13) 0.871820(17) 0.768100(5)
O28 O 0.2474(2) 0.9607(3) 0.80509(7)
O35 O 0.36292(18) 0.6854(2) 0.74952(7)
O39 O 0.22682(19) 0.4687(3) 0.73093(8)
Co1_5 Co 1.0000 -0.0000 0.0000
C22 C 0.8951(3) 0.0677(4) 0.07721(10)
O14 O 0.9903(2) 0.1285(3) 0.06119(8)
O16 O 0.8778(2) 0.0803(3) 0.11646(7)
O29 O 0.7526(2) 0.0393(3) 0.19491(7)
O41 O 0.6073(2) 0.1906(3) 0.11469(8)
H19 H 0.5645 0.1966 0.0888
H20 H 0.5557 0.2161 0.1326
C12 C 0.7378(3) 0.5017(3) 0.73304(10)
C13 C 0.8421(2) 0.4399(3) 0.76958(9)
C14 C 0.9332(3) 0.5604(3) 0.78848(10)
H4 H 0.9223 0.6823 0.7830
C17 C 0.9654(3) 0.1958(3) 0.80720(10)
H5 H 0.9749 0.0746 0.8139
C18 C 0.8568(2) 0.2581(3) 0.78016(9)
C19 C 0.7514(3) 0.1313(3) 0.76512(10)
Co1_6 Co 1.0000 -0.0000 1.0000
O9 O 0.7526(2) 0.4607(3) 0.69491(7)
O10 O 0.64167(18) 0.5899(3) 0.74277(7)
O11 O 0.63708(18) 0.1854(2) 0.75048(7)
C23 C 0.5553(3) 0.1507(3) 0.86095(9)
C24 C 0.6730(3) 0.2552(3) 0.87909(9)
C25 C 0.7647(3) 0.1745(4) 0.91042(10)
H11 H 0.7565 0.0552 0.9183
C26 C 0.8687(3) 0.2751(4) 0.92973(10)
C27 C 0.8822(3) 0.4495(4) 0.91647(10)
C28 C 0.7905(3) 0.5319(4) 0.88586(10)
H12 H 0.7997 0.6509 0.8778
C29 C 0.6845(3) 0.4332(4) 0.86744(9)
C30 C 0.5849(3) 0.5135(4) 0.83320(9)
Co5 Co 0.71369(4) 0.55381(5) 0.630114(13)
N5 N 0.9731(2) 0.2314(3) 0.96174(9)
N6 N 0.9989(3) 0.5039(3) 0.93977(10)
N9 N 0.8500(3) 0.0748(3) 0.66144(10)
H18 H 0.8346 0.1881 0.6601
O21 O 0.5656(2) 0.0292(3) 0.83447(7)
O22 O 0.5087(2) 0.4138(3) 0.80887(7)
O25 O 0.5830(2) 0.6789(3) 0.83023(7)
C11 C 0.9525(3) 0.6284(4) 0.03390(12)
H3 H 0.8728 0.6219 0.0142
Co1_7 Co 1.0000 1.0000 0.0000
H7 H 0.9649 0.3930 0.0623
C21 C 0.7901(3) 0.9704(4) 0.04461(10)
N8 N 0.8201(2) 0.7103(3) 0.14869(9)
O15 O 0.8031(2) 0.9642(3) 0.00433(7)
O17 O 0.6996(2) 0.9054(3) 0.06121(8)
Co1_8 Co 1.0000 1.0000 1.0000
O12 O 0.77318(19) 0.9687(3) 0.76907(8)
C35 C 0.9586(3) 0.9948(4) 0.68412(10)
C36 C 0.9394(3) 0.8148(4) 0.67557(10)
C40 C 0.7714(3) 0.9479(4) 0.64154(12)
H16 H 0.6895 0.9706 0.6242
N7 N 0.8201(2) 0.7897(3) 0.64869(9)
O24 O 0.4913(2) 0.9138(3) 0.69113(7)
C28_2 C 0.2095(3) 0.0319(4) 0.61414(10)
H12_2 H 0.2003 0.1509 0.6222
C30_2 C 0.4151(3) 0.0135(4) 0.66680(9)
N6_2 N 0.0011(3) 0.0039(3) 0.56023(10)
O25_2 O 0.4170(2) 0.1789(3) 0.66977(7)
C11_2 C 0.0475(3) 0.1284(4) 0.46610(12)
H3_2 H 0.1272 0.1219 0.4858
Co1_9 Co 0.0000 0.5000 0.5000
C21_2 C 0.2099(3) 0.4704(4) 0.45539(10)
C22_2 C 0.1049(3) 0.5677(4) 0.42279(10)
C23_2 C 0.4447(3) 0.6507(3) 0.63905(9)
C24_2 C 0.3270(3) 0.7552(3) 0.62091(9)
C25_2 C 0.2353(3) 0.6745(4) 0.58958(10)
H11_2 H 0.2435 0.5552 0.5817
C26_2 C 0.1313(3) 0.7751(4) 0.57027(10)
C27_2 C 0.1178(3) 0.9495(4) 0.58353(10)
C29_2 C 0.3155(3) 0.9332(4) 0.63256(9)
Co3 Co 0.28631(4) 0.44619(5) 0.369886(13)
N5_2 N 0.0269(2) 0.7314(3) 0.53826(9)
N8_2 N 0.1799(2) 0.2103(3) 0.35131(9)
O14_2 O 0.0097(2) 0.6285(3) 0.43881(8)
O15_2 O 0.1969(2) 0.4642(3) 0.49567(7)
O16_2 O 0.1222(2) 0.5803(3) 0.38354(7)
O17_2 O 0.3004(2) 0.4054(3) 0.43879(8)
O18 O 0.54492(19) 0.6862(3) 0.62284(7)
O20 O 0.45508(19) 0.3138(3) 0.37716(7)
O21_2 O 0.4344(2) 0.5292(3) 0.66553(7)
O29_2 O 0.2474(2) 0.5393(3) 0.30509(7)
O41_2 O 0.3927(2) 0.6906(3) 0.38531(8)
H19_2 H 0.4355 0.6966 0.4112
H20_2 H 0.4443 0.7161 0.3674
H7_2 H 0.0351 0.8930 0.4377
H17_2 H 0.9649 0.1070 0.5623
C1_2 C 0.7901(3) 0.5296(4) 0.54461(10)
C2_2 C 0.8951(3) 0.4323(4) 0.57721(10)
C3_2 C 0.5553(3) 0.3493(3) 0.36095(9)
C4_2 C 0.6730(3) 0.2448(3) 0.37909(9)
C5_2 C 0.7647(3) 0.3255(4) 0.41042(10)
H1_2 H 0.7565 0.4448 0.4183
C6_2 C 0.8687(3) 0.2249(4) 0.42973(10)
C7_2 C 0.8822(3) 0.0505(4) 0.41647(10)
C9_2 C 0.6845(3) 0.0668(4) 0.36744(9)
Co1_10 Co 1.0000 0.5000 0.5000
N1_2 N 0.9731(2) 0.2686(3) 0.46174(9)
O1_2 O 0.9903(2) 0.3715(3) 0.56119(8)
O2_2 O 0.8031(2) 0.5358(3) 0.50433(7)
O3_2 O 0.8778(2) 0.4197(3) 0.61646(7)
O4_2 O 0.6996(2) 0.5946(3) 0.56121(8)
O6_2 O 0.5656(2) 0.4708(3) 0.33447(7)
O13_2 O 0.6073(2) 0.3094(3) 0.61469(8)
H9_2 H 0.5645 0.3034 0.5888
H10_2 H 0.5557 0.2839 0.6326
C31_2 C 0.9525(3) 0.8716(4) 0.53390(12)
H13_2 H 0.8728 0.8781 0.5142
O26_2 O 0.5830(2) 0.8211(3) 0.33023(7)
O40_2 O 0.77318(19) 0.5313(3) 0.26907(8)
C8_2 C 0.7905(3) 0.9681(4) 0.38586(10)
H2_2 H 0.7997 0.8491 0.3778
C10_2 C 0.5849(3) 0.9865(4) 0.33320(9)
N2_2 N 0.9989(3) 0.9961(3) 0.43977(10)
C35_2 C 0.0414(3) 0.0052(4) 0.31588(10)
C36_2 C 0.0606(3) 0.1852(4) 0.32443(10)
C40_2 C 0.2286(3) 0.0521(4) 0.35846(12)
H16_2 H 0.3105 0.0294 0.3758
C12_2 C 0.2622(3) 0.4983(3) 0.26696(10)
C13_2 C 0.1579(2) 0.5601(3) 0.23042(9)
C14_2 C 0.0668(3) 0.4396(3) 0.21152(10)
H4_2 H 0.0777 0.3177 0.2170
C17_2 C 0.0346(3) 0.8042(3) 0.19280(10)
H5_2 H 0.0251 0.9254 0.1861
C18_2 C 0.1432(2) 0.7419(3) 0.21984(9)
C19_2 C 0.2486(3) 0.8687(3) 0.23488(10)
N9_2 N 0.1500(3) 0.9252(3) 0.33856(10)
H18_2 H 0.1654 0.8119 0.3399
C33_2 C 0.8421(2) 0.0601(3) 0.26958(9)
C37_2 C 0.9654(3) 0.3042(3) 0.30720(10)
H15_2 H 0.9749 0.4254 0.3139
C38_2 C 0.8568(2) 0.2419(3) 0.28016(9)
C39_2 C 0.7514(3) 0.3687(3) 0.26512(10)
C15_2 C 0.9586(3) 0.5052(4) 0.18412(10)
C16_2 C 0.9394(3) 0.6852(4) 0.17557(10)
C20_2 C 0.7714(3) 0.5521(4) 0.14154(12)
H6_2 H 0.6895 0.5294 0.1242
N4_2 N 0.8500(3) 0.4252(3) 0.16144(10)
H8_2 H 0.8346 0.3119 0.1601
C32_2 C 0.7378(3) 0.9983(3) 0.23304(10)
C34_2 C 0.9332(3) 0.9396(3) 0.28848(10)
H14_2 H 0.9223 0.8177 0.2830
loop_
_geom_bond_atom_site_label_1
_geom_bond_atom_site_label_2
_geom_bond_site_symmetry_1
_geom_bond_site_symmetry_2
O23 Nd1 1_555 1_555
O26 Nd1 1_555 1_555
O32 Nd1 1_555 1_555
O37 Nd1 1_555 1_555
O40 Nd1 1_555 1_555
C16 C15 1_555 1_555
C20 H6 1_555 1_555
Co2 N3 1_555 1_555
N3 C16 1_555 1_555
N4 C15 1_555 1_555
H8 N4 1_555 1_555
O2 C1 1_555 1_555
O4 C1 1_555 1_555
C31 H13 1_555 1_555
C34 H14 1_555 1_555
Nd8 O30 1_555 1_555
O19 Co2 1_555 1_555
O30 C32 1_555 1_555
C20 N3 1_555 1_555
C20 N4 1_555 1_555
Co1_2 O2 1_555 1_555
Co2 O4 1_555 1_555
C3 C4 1_555 1_555
C4 C5 1_555 1_555
C5 H1 1_555 1_555
C6 C5 1_555 1_555
C7 C6 1_555 1_555
C8 C7 1_555 1_555
H2 C8 1_555 1_555
C9 C4 1_555 1_555
C10 C9 1_555 1_555
Co1_3 N1 1_555 1_555
N1 C6 1_555 1_555
N2 C7 1_555 1_555
O5 C3 1_555 1_555
O6 C3 1_555 1_555
O7 C10 1_555 1_555
O26 C10 1_555 1_555
Co4 O5 1_555 1_555
Nd3 O7 1_555 1_555
C8 C9 1_555 1_555
Nd3 O31 1_555 1_555
Nd3 O36 1_555 1_555
C2 O1 1_555 1_555
O1 Co1_4 1_555 1_555
O3 C2 1_555 1_555
H9 O13 1_555 1_555
H10 O13 1_555 1_555
H15 C37 1_555 1_555
C38 C33 1_555 1_555
C39 C38 1_555 1_555
Nd8 O35 1_555 1_555
O35 C39 1_555 1_555
O39 C39 1_555 1_555
C37 C38 1_555 1_555
Nd7 O35 1_555 1_555
Nd8 O39 1_555 1_555
C22 O14 1_555 1_555
O14 Co1_5 1_555 1_555
O16 C22 1_555 1_555
H19 O41 1_555 1_555
H20 O41 1_555 1_555
C12 C13 1_555 1_555
C13 C14 1_555 1_555
C14 H4 1_555 1_555
H5 C17 1_555 1_555
C18 C13 1_555 1_555
C19 C18 1_555 1_555
O9 C12 1_555 1_555
O10 C12 1_555 1_555
O11 C19 1_555 1_555
C23 C24 1_555 1_555
C24 C25 1_555 1_555
C25 H11 1_555 1_555
C26 C25 1_555 1_555
C27 C26 1_555 1_555
C28 C27 1_555 1_555
H12 C28 1_555 1_555
C29 C24 1_555 1_555
C30 C29 1_555 1_555
Co5 O9 1_555 1_555
N5 Co1_6 1_555 1_555
N6 C27 1_555 1_555
H18 N9 1_555 1_555
Nd8 O10 1_555 1_555
Nd7 O10 1_555 1_555
O19 C23 1_555 1_555
O21 C23 1_555 1_555
O22 C30 1_555 1_555
O25 C30 1_555 1_555
C17 C18 1_555 1_555
O11 Nd8 1_555 1_555
C26 N5 1_555 1_555
C28 C29 1_555 1_555
Nd8 O22 1_555 1_555
Nd7 O25 1_555 1_555
C11 H3 1_555 1_555
Co4 N8 1_555 1_555
O15 Co1_7 1_555 1_555
O17 C21 1_555 1_555
C21 O15 1_555 1_555
Co4 O17 1_555 1_555
C36 C35 1_555 1_555
C40 H16 1_555 1_555
Co5 N7 1_555 1_555
N7 C36 1_555 1_555
O24 Nd7 1_555 1_555
O12 Nd7 1_555 1_555
C40 N7 1_555 1_555
H12_2 C28_2 1_555 1_555
O25_2 C30_2 1_555 1_555
Nd8 O25_2 1_555 1_555
C11_2 H3_2 1_555 1_555
C21_2 C22_2 1_555 1_555
C22_2 O14_2 1_555 1_555
C23_2 C24_2 1_555 1_555
C24_2 C25_2 1_555 1_555
C25_2 H11_2 1_555 1_555
C26_2 C25_2 1_555 1_555
C27_2 C26_2 1_555 1_555
C29_2 C24_2 1_555 1_555
Co3 N8_2 1_555 1_555
Co5 O18 1_555 1_555
N5_2 Co1_9 1_555 1_555
O14_2 Co1_9 1_555 1_555
O15_2 Co1_9 1_555 1_555
O16_2 C22_2 1_555 1_555
O17_2 C21_2 1_555 1_555
O18 C23_2 1_555 1_555
O20 Co3 1_555 1_555
O21_2 C23_2 1_555 1_555
O29_2 Co3 1_555 1_555
O41_2 Co3 1_555 1_555
H19_2 O41_2 1_555 1_555
H20_2 O41_2 1_555 1_555
C21_2 O15_2 1_555 1_555
C26_2 N5_2 1_555 1_555
Co3 O16_2 1_555 1_555
Co3 O17_2 1_555 1_555
Nd8 O21_2 1_555 1_555
C1_2 C2_2 1_555 1_555
C2_2 O1_2 1_555 1_555
C3_2 C4_2 1_555 1_555
C4_2 C5_2 1_555 1_555
C5_2 H1_2 1_555 1_555
C6_2 C5_2 1_555 1_555
C7_2 C6_2 1_555 1_555
C9_2 C4_2 1_555 1_555
Co1_10 N1_2 1_555 1_555
N1_2 C6_2 1_555 1_555
Nd3 O6_2 1_555 1_555
O1_2 Co1_10 1_555 1_555
O2_2 C1_2 1_555 1_555
O3_2 C2_2 1_555 1_555
O4_2 C1_2 1_555 1_555
O20 C3_2 1_555 1_555
O6_2 C3_2 1_555 1_555
O13_2 Co5 1_555 1_555
H9_2 O13_2 1_555 1_555
H10_2 O13_2 1_555 1_555
C31_2 H13_2 1_555 1_555
O26_2 Nd3 1_555 1_555
O32 Nd3 1_555 1_555
O37 Nd3 1_555 1_555
O40_2 Nd3 1_555 1_555
Co1_10 O2_2 1_555 1_555
Co5 O3_2 1_555 1_555
Co5 O4_2 1_555 1_555
H2_2 C8_2 1_555 1_555
O26_2 C10_2 1_555 1_555
C36_2 C35_2 1_555 1_555
C40_2 H16_2 1_555 1_555
N8_2 C36_2 1_555 1_555
C40_2 N8_2 1_555 1_555
C12_2 C13_2 1_555 1_555
C13_2 C14_2 1_555 1_555
C14_2 H4_2 1_555 1_555
H5_2 C17_2 1_555 1_555
C18_2 C13_2 1_555 1_555
C19_2 C18_2 1_555 1_555
O29_2 C12_2 1_555 1_555
O32 C12_2 1_555 1_555
O36 C19_2 1_555 1_555
H18_2 N9_2 1_555 1_555
C17_2 C18_2 1_555 1_555
H15_2 C37_2 1_555 1_555
C38_2 C33_2 1_555 1_555
C39_2 C38_2 1_555 1_555
O37 C39_2 1_555 1_555
O40_2 C39_2 1_555 1_555
C37_2 C38_2 1_555 1_555
C16_2 C15_2 1_555 1_555
C20_2 H6_2 1_555 1_555
N8 C16_2 1_555 1_555
N4_2 C15_2 1_555 1_555
H8_2 N4_2 1_555 1_555
C34_2 H14_2 1_555 1_555
O31 C32_2 1_555 1_555
C20_2 N8 1_555 1_555
C20_2 N4_2 1_555 1_555

#END
