
###############################################################################
#
# This file contains modified crystal structure data generated from the
# MOF subset of the Cambridge Structural Database (CSD) v543 
# hosted by the Cambridge Crystallographic Data Centre (CCDC).
#
# This work is licensed under the Creative Commons
# Attribution-NonCommercial-ShareAlike 4.0 International License.
# To view a copy of this license, visit
# http://creativecommons.org/licenses/by-nc-sa/4.0/
# or send a letter to
# Creative Commons, PO Box 1866, Mountain View, CA 94042, USA.
#
# CIF created using the CSD Python API on 29 September 2022
# The structure has been converted into the P1 space group
# The structure has a 3D framework
# The original CSD entry ZEFWIS is in the monoclinic crystal system
# The framework has been calculated to contain at least 10.0% void space
# The void calculation uses a probe of radius 1.32A, grid spacing 0.4
#
###############################################################################

data_ZEFWIS
_chemical_formula_moiety         '(C96 H112 N16 Ni8 O46 V16)n'
_symmetry_cell_setting           triclinic
_symmetry_space_group_name_H-M   'P 1'
_symmetry_Int_Tables_number      1
_space_group_name_Hall           'P 1'
loop_
_symmetry_equiv_pos_site_id
_symmetry_equiv_pos_as_xyz
1 x,y,z
_cell_length_a                   28.258(5)
_cell_length_b                   9.612(5)
_cell_length_c                   14.579(5)
_cell_angle_alpha                90
_cell_angle_beta                 110.191(5)
_cell_angle_gamma                90
_cell_volume                     3716.54
loop_
_atom_site_label
_atom_site_type_symbol
_atom_site_fract_x
_atom_site_fract_y
_atom_site_fract_z
N2 N 0.20044(13) 0.7859(4) 0.7698(2)
C1 C 0.18141(17) 0.8018(4) 0.6722(3)
H1 H 0.2038 0.8082 0.6384
C7 C 0.16735(17) 0.7750(5) 0.8167(3)
H6 H 0.1796 0.7606 0.8839
C8 C 0.11607(19) 0.7841(7) 0.7700(4)
H7 H 0.0945 0.7767 0.8057
C9 C 0.0963(2) 0.8043(6) 0.6691(4)
C10 C 0.13076(19) 0.8090(5) 0.6197(4)
H8 H 0.1195 0.8168 0.5520
C11 C 0.0136(3) 0.6937(8) 0.5981(6)
H9 H 0.0181 0.6503 0.6606
H10 H 0.0291 0.6333 0.5633
C12 C 0.0401(2) 0.8213(8) 0.6160(6)
H11 H 0.0263 0.8805 0.6546
H12 H 0.0347 0.8677 0.5541
Ni2 Ni 0.27832(2) 0.78785(5) 0.84523(4)
O4 O 0.80389(12) 0.1082(3) 0.5495(2)
O6 O 0.70202(13) 0.1002(3) 0.4009(2)
V3 V 0.68039(3) 0.26988(7) 0.35170(5)
V4 V 0.81961(3) 0.23012(7) 0.64830(5)
N1 N 0.85463(13) 0.7049(4) 0.4253(2)
C2 C 0.87661(18) 0.5924(5) 0.4760(3)
H2 H 0.8571 0.5131 0.4719
C3 C 0.88293(19) 0.8161(5) 0.4320(4)
H3 H 0.8684 0.8950 0.3965
C4 C 0.9332(2) 0.8198(6) 0.4896(5)
H4 H 0.9515 0.9017 0.4952
C5 C 0.9567(2) 0.7001(6) 0.5399(4)
C6 C 0.9267(2) 0.5882(5) 0.5340(4)
H5 H 0.9400 0.5081 0.5693
O1 O 0.88036(11) 0.7660(3) 0.2035(2)
O2 O 0.77447(11) 0.9033(3) 0.4035(2)
O3 O 0.78410(12) 0.5177(3) 0.2891(2)
O5 O 0.76553(11) 0.6043(3) 0.45374(19)
O7 O 0.79098(11) 0.8091(3) 0.22809(19)
V1 V 0.81961(3) 0.76988(7) 0.14830(5)
V2 V 0.75407(3) 0.99797(7) 0.47686(5)
Ni1 Ni 0.77832(2) 0.71215(5) 0.34523(4)
H13 H 0.7923(18) 0.509(5) 0.237(3)
H14 H 0.7575(17) 0.468(5) 0.282(4)
N3 N 0.70044(13) 0.7141(4) 0.2698(2)
O8 O 0.80389(12) 0.8918(3) 0.0495(2)
O9 O 0.73447(11) 0.8957(3) 0.54626(19)
O10 O 0.79798(13) 0.6002(3) 0.0991(2)
V5 V 0.74593(3) 0.50203(7) 0.52314(5)
O6_2 O 0.29798(13) 0.1002(3) 0.0991(2)
V3_2 V 0.31961(3) 0.26988(7) 0.14830(5)
O4_2 O 0.19611(12) 0.1082(3) 0.9505(2)
V4_2 V 0.18039(3) 0.23012(7) 0.85170(5)
N1_2 N 0.14537(13) 0.7049(4) 0.0747(2)
C2_2 C 0.12339(18) 0.5924(5) 0.0240(3)
H2_2 H 0.1429 0.5131 0.0281
C3_2 C 0.11707(19) 0.8161(5) 0.0680(4)
H3_2 H 0.1316 0.8950 0.1035
C4_2 C 0.0668(2) 0.8198(6) 0.0104(5)
H4_2 H 0.0485 0.9017 0.0048
O1_2 O 0.11964(11) 0.7660(3) 0.2965(2)
O2_2 O 0.22553(11) 0.9033(3) 0.0965(2)
O3_2 O 0.21590(12) 0.5177(3) 0.2109(2)
O5_2 O 0.23447(11) 0.6043(3) 0.04626(19)
O7_2 O 0.20902(11) 0.8091(3) 0.27191(19)
V1_2 V 0.18039(3) 0.76988(7) 0.35170(5)
V2_2 V 0.24593(3) 0.99797(7) 0.02314(5)
Ni1_2 Ni 0.22168(2) 0.71215(5) 0.15477(4)
H13_2 H 0.2077(18) 0.509(5) 0.263(3)
H14_2 H 0.2425(17) 0.468(5) 0.218(4)
N3_2 N 0.29956(13) 0.7141(4) 0.2302(2)
O8_2 O 0.19611(12) 0.8918(3) 0.4505(2)
O10_2 O 0.20202(13) 0.6002(3) 0.4009(2)
C5_2 C 0.0433(2) 0.7001(6) 0.9601(4)
C6_2 C 0.0733(2) 0.5882(5) 0.9660(4)
H5_2 H 0.0600 0.5081 0.9307
O9_2 O 0.26553(11) 0.8957(3) 0.95374(19)
V5_2 V 0.25407(3) 0.50203(7) 0.97686(5)
N2_2 N 0.79956(13) 0.7859(4) 0.7302(2)
C1_2 C 0.81859(17) 0.8018(4) 0.8278(3)
H1_2 H 0.7962 0.8082 0.8616
C7_2 C 0.83265(17) 0.7750(5) 0.6833(3)
H6_2 H 0.8204 0.7606 0.6161
C8_2 C 0.88393(19) 0.7841(7) 0.7300(4)
H7_2 H 0.9055 0.7767 0.6943
C9_2 C 0.9037(2) 0.8043(6) 0.8309(4)
C10_2 C 0.86924(19) 0.8090(5) 0.8803(4)
H8_2 H 0.8805 0.8168 0.9480
C11_2 C 0.9864(3) 0.6937(8) 0.9019(6)
H9_2 H 0.9819 0.6503 0.8394
H10_2 H 0.9709 0.6333 0.9367
C12_2 C 0.9599(2) 0.8213(8) 0.8840(6)
H11_2 H 0.9737 0.8805 0.8454
H12_2 H 0.9653 0.8677 0.9459
Ni2_2 Ni 0.72168(2) 0.78785(5) 0.65477(4)
N1_3 N 0.35463(13) 0.2049(4) 0.4253(2)
N2_3 N 0.70044(13) 0.2859(4) 0.7698(2)
C1_3 C 0.68141(17) 0.3018(4) 0.6722(3)
H1_3 H 0.7038 0.3082 0.6384
C2_3 C 0.37661(18) 0.0924(5) 0.4760(3)
H2_3 H 0.3571 0.0131 0.4719
C3_3 C 0.38293(19) 0.3161(5) 0.4320(4)
H3_3 H 0.3684 0.3950 0.3965
C4_3 C 0.4332(2) 0.3198(6) 0.4896(5)
H4_3 H 0.4515 0.4017 0.4952
C5_3 C 0.4567(2) 0.2001(6) 0.5399(4)
C6_3 C 0.4267(2) 0.0882(5) 0.5340(4)
H5_3 H 0.4400 0.0081 0.5693
C7_3 C 0.66735(17) 0.2750(5) 0.8167(3)
H6_3 H 0.6796 0.2606 0.8839
C8_3 C 0.61607(19) 0.2841(7) 0.7700(4)
H7_3 H 0.5945 0.2767 0.8057
C9_3 C 0.5963(2) 0.3043(6) 0.6691(4)
C10_3 C 0.63076(19) 0.3090(5) 0.6197(4)
H8_3 H 0.6195 0.3168 0.5520
C11_3 C 0.5136(3) 0.1937(8) 0.5981(6)
H9_3 H 0.5181 0.1503 0.6606
H10_3 H 0.5291 0.1333 0.5633
C12_3 C 0.5401(2) 0.3213(8) 0.6160(6)
H11_3 H 0.5263 0.3805 0.6546
H12_3 H 0.5347 0.3677 0.5541
O1_3 O 0.38036(11) 0.2660(3) 0.2035(2)
O2_3 O 0.27447(11) 0.4033(3) 0.4035(2)
O3_3 O 0.28410(12) 0.0177(3) 0.2891(2)
O4_3 O 0.30389(12) 0.6082(3) 0.5495(2)
O5_3 O 0.26553(11) 0.1043(3) 0.45374(19)
O7_3 O 0.29098(11) 0.3091(3) 0.22809(19)
V2_3 V 0.25407(3) 0.49797(7) 0.47686(5)
Ni1_3 Ni 0.27832(2) 0.21215(5) 0.34523(4)
H13_3 H 0.2923(18) 0.009(5) 0.237(3)
N3_3 N 0.20044(13) 0.2141(4) 0.2698(2)
O8_3 O 0.30389(12) 0.3918(3) 0.0495(2)
O9_3 O 0.23447(11) 0.3957(3) 0.54626(19)
V4_3 V 0.31961(3) 0.73012(7) 0.64830(5)
V5_3 V 0.24593(3) 0.00203(7) 0.52314(5)
Ni2_3 Ni 0.77832(2) 0.28785(5) 0.84523(4)
N1_4 N 0.64537(13) 0.2049(4) 0.0747(2)
C2_4 C 0.62339(18) 0.0924(5) 0.0240(3)
H2_4 H 0.6429 0.0131 0.0281
C3_4 C 0.61707(19) 0.3161(5) 0.0680(4)
H3_4 H 0.6316 0.3950 0.1035
C4_4 C 0.5668(2) 0.3198(6) 0.0104(5)
H4_4 H 0.5485 0.4017 0.0048
O1_4 O 0.61964(11) 0.2660(3) 0.2965(2)
O2_4 O 0.72553(11) 0.4033(3) 0.0965(2)
O3_4 O 0.71590(12) 0.0177(3) 0.2109(2)
O5_4 O 0.73447(11) 0.1043(3) 0.04626(19)
O7_4 O 0.70902(11) 0.3091(3) 0.27191(19)
V2_4 V 0.74593(3) 0.49797(7) 0.02314(5)
Ni1_4 Ni 0.72168(2) 0.21215(5) 0.15477(4)
H13_4 H 0.7077(18) 0.009(5) 0.263(3)
N3_4 N 0.79956(13) 0.2141(4) 0.2302(2)
O8_4 O 0.69611(12) 0.3918(3) 0.4505(2)
N2_4 N 0.29956(13) 0.2859(4) 0.7302(2)
C1_4 C 0.31859(17) 0.3018(4) 0.8278(3)
H1_4 H 0.2962 0.3082 0.8616
C5_4 C 0.5433(2) 0.2001(6) 0.9601(4)
C6_4 C 0.5733(2) 0.0882(5) 0.9660(4)
H5_4 H 0.5600 0.0081 0.9307
C7_4 C 0.33265(17) 0.2750(5) 0.6833(3)
H6_4 H 0.3204 0.2606 0.6161
C8_4 C 0.38393(19) 0.2841(7) 0.7300(4)
H7_4 H 0.4055 0.2767 0.6943
C9_4 C 0.4037(2) 0.3043(6) 0.8309(4)
C10_4 C 0.36924(19) 0.3090(5) 0.8803(4)
H8_4 H 0.3805 0.3168 0.9480
C11_4 C 0.4864(3) 0.1937(8) 0.9019(6)
H9_4 H 0.4819 0.1503 0.8394
H10_4 H 0.4709 0.1333 0.9367
C12_4 C 0.4599(2) 0.3213(8) 0.8840(6)
H11_4 H 0.4737 0.3805 0.8454
H12_4 H 0.4653 0.3677 0.9459
O4_4 O 0.69611(12) 0.6082(3) 0.9505(2)
O9_4 O 0.76553(11) 0.3957(3) 0.95374(19)
V4_4 V 0.68039(3) 0.73012(7) 0.85170(5)
V5_4 V 0.75407(3) 0.00203(7) 0.97686(5)
Ni2_4 Ni 0.22168(2) 0.28785(5) 0.65477(4)
N1_5 N 0.14537(13) 0.2951(4) 0.5747(2)
C2_5 C 0.12339(18) 0.4076(5) 0.5240(3)
H2_5 H 0.1429 0.4869 0.5281
C3_5 C 0.11707(19) 0.1839(5) 0.5680(4)
H3_5 H 0.1316 0.1050 0.6035
C4_5 C 0.0668(2) 0.1802(6) 0.5104(5)
H4_5 H 0.0485 0.0983 0.5048
C5_5 C 0.0433(2) 0.2999(6) 0.4601(4)
C6_5 C 0.0733(2) 0.4118(5) 0.4660(4)
H5_5 H 0.0600 0.4919 0.4307
O1_5 O 0.11964(11) 0.2340(3) 0.7965(2)
O2_5 O 0.22553(11) 0.0967(3) 0.5965(2)
O3_5 O 0.21590(12) 0.4823(3) 0.7109(2)
O7_5 O 0.20902(11) 0.1909(3) 0.77191(19)
H13_5 H 0.2077(18) 0.491(5) 0.763(3)
H14_3 H 0.2425(17) 0.532(5) 0.718(4)
O10_3 O 0.20202(13) 0.3998(3) 0.9009(2)
O6_3 O 0.29798(13) 0.8998(3) 0.5991(2)
C1_5 C 0.81859(17) 0.1982(4) 0.3278(3)
H1_5 H 0.7962 0.1918 0.3616
C7_5 C 0.83265(17) 0.2250(5) 0.1833(3)
H6_5 H 0.8204 0.2394 0.1161
C8_5 C 0.88393(19) 0.2159(7) 0.2300(4)
H7_5 H 0.9055 0.2233 0.1943
C9_5 C 0.9037(2) 0.1957(6) 0.3309(4)
C10_5 C 0.86924(19) 0.1910(5) 0.3803(4)
H8_5 H 0.8805 0.1832 0.4480
C11_5 C 0.9864(3) 0.3063(8) 0.4019(6)
H9_5 H 0.9819 0.3497 0.3394
H10_5 H 0.9709 0.3667 0.4367
C12_5 C 0.9599(2) 0.1787(8) 0.3840(6)
H11_5 H 0.9737 0.1195 0.3454
H12_5 H 0.9653 0.1323 0.4459
C1_6 C 0.18141(17) 0.1982(4) 0.1722(3)
H1_6 H 0.2038 0.1918 0.1384
C7_6 C 0.16735(17) 0.2250(5) 0.3167(3)
H6_6 H 0.1796 0.2394 0.3839
C8_6 C 0.11607(19) 0.2159(7) 0.2700(4)
H7_6 H 0.0945 0.2233 0.3057
C9_6 C 0.0963(2) 0.1957(6) 0.1691(4)
C10_6 C 0.13076(19) 0.1910(5) 0.1197(4)
H8_6 H 0.1195 0.1832 0.0520
C11_6 C 0.0136(3) 0.3063(8) 0.0981(6)
H9_6 H 0.0181 0.3497 0.1606
H10_6 H 0.0291 0.3667 0.0633
C12_6 C 0.0401(2) 0.1787(8) 0.1160(6)
H11_6 H 0.0263 0.1195 0.1546
H12_6 H 0.0347 0.1323 0.0541
C5_6 C 0.9567(2) 0.2999(6) 0.0399(4)
C6_6 C 0.9267(2) 0.4118(5) 0.0340(4)
H5_6 H 0.9400 0.4919 0.0693
N1_6 N 0.85463(13) 0.2951(4) 0.9253(2)
C2_6 C 0.87661(18) 0.4076(5) 0.9760(3)
H2_6 H 0.8571 0.4869 0.9719
C3_6 C 0.88293(19) 0.1839(5) 0.9320(4)
H3_6 H 0.8684 0.1050 0.8965
C4_6 C 0.9332(2) 0.1802(6) 0.9896(5)
H4_6 H 0.9515 0.0983 0.9952
O1_6 O 0.88036(11) 0.2340(3) 0.7035(2)
O2_6 O 0.77447(11) 0.0967(3) 0.9035(2)
O3_6 O 0.78410(12) 0.4823(3) 0.7891(2)
O7_6 O 0.79098(11) 0.1909(3) 0.72809(19)
H13_6 H 0.7923(18) 0.491(5) 0.737(3)
H14_4 H 0.7575(17) 0.532(5) 0.782(4)
O10_4 O 0.79798(13) 0.3998(3) 0.5991(2)
O6_4 O 0.70202(13) 0.8998(3) 0.9009(2)
N1_7 N 0.64537(13) 0.7951(4) 0.5747(2)
C1_7 C 0.31859(17) 0.6982(4) 0.3278(3)
H1_7 H 0.2962 0.6918 0.3616
C2_7 C 0.62339(18) 0.9076(5) 0.5240(3)
H2_7 H 0.6429 0.9869 0.5281
C3_7 C 0.61707(19) 0.6839(5) 0.5680(4)
H3_7 H 0.6316 0.6050 0.6035
C4_7 C 0.5668(2) 0.6802(6) 0.5104(5)
H4_7 H 0.5485 0.5983 0.5048
C5_7 C 0.5433(2) 0.7999(6) 0.4601(4)
C6_7 C 0.5733(2) 0.9118(5) 0.4660(4)
H5_7 H 0.5600 0.9919 0.4307
C7_7 C 0.33265(17) 0.7250(5) 0.1833(3)
H6_7 H 0.3204 0.7394 0.1161
C8_7 C 0.38393(19) 0.7159(7) 0.2300(4)
H7_7 H 0.4055 0.7233 0.1943
C9_7 C 0.4037(2) 0.6957(6) 0.3309(4)
C10_7 C 0.36924(19) 0.6910(5) 0.3803(4)
H8_7 H 0.3805 0.6832 0.4480
C11_7 C 0.4864(3) 0.8063(8) 0.4019(6)
H9_7 H 0.4819 0.8497 0.3394
H10_7 H 0.4709 0.8667 0.4367
C12_7 C 0.4599(2) 0.6787(8) 0.3840(6)
H11_7 H 0.4737 0.6195 0.3454
H12_7 H 0.4653 0.6323 0.4459
O1_7 O 0.61964(11) 0.7340(3) 0.7965(2)
O2_7 O 0.72553(11) 0.5967(3) 0.5965(2)
O3_7 O 0.71590(12) 0.9823(3) 0.7109(2)
O7_7 O 0.70902(11) 0.6909(3) 0.77191(19)
H13_7 H 0.7077(18) 0.991(5) 0.763(3)
C1_8 C 0.68141(17) 0.6982(4) 0.1722(3)
H1_8 H 0.7038 0.6918 0.1384
C5_8 C 0.4567(2) 0.7999(6) 0.0399(4)
C6_8 C 0.4267(2) 0.9118(5) 0.0340(4)
H5_8 H 0.4400 0.9919 0.0693
C7_8 C 0.66735(17) 0.7250(5) 0.3167(3)
H6_8 H 0.6796 0.7394 0.3839
C8_8 C 0.61607(19) 0.7159(7) 0.2700(4)
H7_8 H 0.5945 0.7233 0.3057
C9_8 C 0.5963(2) 0.6957(6) 0.1691(4)
C10_8 C 0.63076(19) 0.6910(5) 0.1197(4)
H8_8 H 0.6195 0.6832 0.0520
C11_8 C 0.5136(3) 0.8063(8) 0.0981(6)
H9_8 H 0.5181 0.8497 0.1606
H10_8 H 0.5291 0.8667 0.0633
C12_8 C 0.5401(2) 0.6787(8) 0.1160(6)
H11_8 H 0.5263 0.6195 0.1546
H12_8 H 0.5347 0.6323 0.0541
N1_8 N 0.35463(13) 0.7951(4) 0.9253(2)
C2_8 C 0.37661(18) 0.9076(5) 0.9760(3)
H2_8 H 0.3571 0.9869 0.9719
C3_8 C 0.38293(19) 0.6839(5) 0.9320(4)
H3_8 H 0.3684 0.6050 0.8965
C4_8 C 0.4332(2) 0.6802(6) 0.9896(5)
H4_8 H 0.4515 0.5983 0.9952
O1_8 O 0.38036(11) 0.7340(3) 0.7035(2)
O2_8 O 0.27447(11) 0.5967(3) 0.9035(2)
O3_8 O 0.28410(12) 0.9823(3) 0.7891(2)
O7_8 O 0.29098(11) 0.6909(3) 0.72809(19)
H13_8 H 0.2923(18) 0.991(5) 0.737(3)
H14_5 H 0.2575(17) 0.968(5) 0.282(4)
H14_6 H 0.7425(17) 0.968(5) 0.218(4)
H14_7 H 0.7425(17) 0.032(5) 0.718(4)
H14_8 H 0.2575(17) 0.032(5) 0.782(4)
loop_
_geom_bond_atom_site_label_1
_geom_bond_atom_site_label_2
_geom_bond_site_symmetry_1
_geom_bond_site_symmetry_2
N2 C1 1_555 1_555
C1 H1 1_555 1_555
C7 N2 1_555 1_555
H6 C7 1_555 1_555
C8 C7 1_555 1_555
H7 C8 1_555 1_555
C9 C8 1_555 1_555
C10 C1 1_555 1_555
H8 C10 1_555 1_555
H9 C11 1_555 1_555
H10 C11 1_555 1_555
C12 C9 1_555 1_555
H11 C12 1_555 1_555
H12 C12 1_555 1_555
Ni2 N2 1_555 1_555
C9 C10 1_555 1_555
C11 C12 1_555 1_555
V3 O6 1_555 1_555
V4 O4 1_555 1_555
N1 C2 1_555 1_555
C2 H2 1_555 1_555
C3 N1 1_555 1_555
H3 C3 1_555 1_555
C4 C3 1_555 1_555
H4 C4 1_555 1_555
C5 C4 1_555 1_555
C6 C2 1_555 1_555
H5 C6 1_555 1_555
O1 V1 1_555 1_555
O2 V2 1_555 1_555
O3 Ni1 1_555 1_555
O5 Ni1 1_555 1_555
O7 V1 1_555 1_555
V1 O8 1_555 1_555
V2 O9 1_555 1_555
Ni1 N1 1_555 1_555
H13 O3 1_555 1_555
H14 O3 1_555 1_555
N3 Ni1 1_555 1_555
O10 V1 1_555 1_555
V5 O5 1_555 1_555
C5 C6 1_555 1_555
O2 Ni1 1_555 1_555
O7 Ni1 1_555 1_555
V3_2 O6_2 1_555 1_555
V4_2 O4_2 1_555 1_555
N1_2 C2_2 1_555 1_555
C2_2 H2_2 1_555 1_555
C3_2 N1_2 1_555 1_555
H3_2 C3_2 1_555 1_555
C4_2 C3_2 1_555 1_555
H4_2 C4_2 1_555 1_555
O1_2 V1_2 1_555 1_555
O2_2 V2_2 1_555 1_555
O3_2 Ni1_2 1_555 1_555
O5_2 Ni1_2 1_555 1_555
O7_2 V1_2 1_555 1_555
V1_2 O8_2 1_555 1_555
Ni1_2 N1_2 1_555 1_555
H13_2 O3_2 1_555 1_555
H14_2 O3_2 1_555 1_555
N3_2 Ni1_2 1_555 1_555
O10_2 V1_2 1_555 1_555
O2_2 Ni1_2 1_555 1_555
O7_2 Ni1_2 1_555 1_555
H5_2 C6_2 1_555 1_555
C5_2 C6_2 1_555 1_555
N2_2 C1_2 1_555 1_555
C1_2 H1_2 1_555 1_555
C7_2 N2_2 1_555 1_555
H6_2 C7_2 1_555 1_555
C8_2 C7_2 1_555 1_555
H7_2 C8_2 1_555 1_555
C9_2 C8_2 1_555 1_555
C10_2 C1_2 1_555 1_555
H8_2 C10_2 1_555 1_555
H9_2 C11_2 1_555 1_555
H10_2 C11_2 1_555 1_555
C12_2 C9_2 1_555 1_555
H11_2 C12_2 1_555 1_555
H12_2 C12_2 1_555 1_555
Ni2_2 N2_2 1_555 1_555
C9_2 C10_2 1_555 1_555
C11_2 C12_2 1_555 1_555
N1_3 C2_3 1_555 1_555
N2_3 C1_3 1_555 1_555
C1_3 H1_3 1_555 1_555
C2_3 H2_3 1_555 1_555
C3_3 N1_3 1_555 1_555
H3_3 C3_3 1_555 1_555
C4_3 C3_3 1_555 1_555
H4_3 C4_3 1_555 1_555
C5_3 C4_3 1_555 1_555
C6_3 C2_3 1_555 1_555
H5_3 C6_3 1_555 1_555
C7_3 N2_3 1_555 1_555
H6_3 C7_3 1_555 1_555
C8_3 C7_3 1_555 1_555
H7_3 C8_3 1_555 1_555
C9_3 C8_3 1_555 1_555
C10_3 C1_3 1_555 1_555
H8_3 C10_3 1_555 1_555
C11_3 C5_3 1_555 1_555
H9_3 C11_3 1_555 1_555
H10_3 C11_3 1_555 1_555
C12_3 C9_3 1_555 1_555
H11_3 C12_3 1_555 1_555
H12_3 C12_3 1_555 1_555
O1_3 V3_2 1_555 1_555
O2_3 V2_3 1_555 1_555
O3_3 Ni1_3 1_555 1_555
O4_3 V2_3 1_555 1_555
O5_3 Ni1_3 1_555 1_555
O10_2 V2_3 1_555 1_555
O7_3 V3_2 1_555 1_555
V3_2 O8_3 1_555 1_555
V2_3 O9_3 1_555 1_555
Ni1_3 N1_3 1_555 1_555
H13_3 O3_3 1_555 1_555
N3_3 Ni1_3 1_555 1_555
V4_3 O4_3 1_555 1_555
V5_3 O5_3 1_555 1_555
Ni2_3 N2_3 1_555 1_555
C5_3 C6_3 1_555 1_555
C9_3 C10_3 1_555 1_555
C11_3 C12_3 1_555 1_555
O2_3 Ni1_3 1_555 1_555
O7_3 Ni1_3 1_555 1_555
N1_4 C2_4 1_555 1_555
C2_4 H2_4 1_555 1_555
C3_4 N1_4 1_555 1_555
H3_4 C3_4 1_555 1_555
C4_4 C3_4 1_555 1_555
H4_4 C4_4 1_555 1_555
O1_4 V3 1_555 1_555
O2_4 V2_4 1_555 1_555
O3_4 Ni1_4 1_555 1_555
O5_4 Ni1_4 1_555 1_555
O10 V2_4 1_555 1_555
O7_4 V3 1_555 1_555
V3 O8_4 1_555 1_555
Ni1_4 N1_4 1_555 1_555
H13_4 O3_4 1_555 1_555
N3_4 Ni1_4 1_555 1_555
O2_4 Ni1_4 1_555 1_555
O7_4 Ni1_4 1_555 1_555
N2_4 C1_4 1_555 1_555
C1_4 H1_4 1_555 1_555
H5_4 C6_4 1_555 1_555
C7_4 N2_4 1_555 1_555
H6_4 C7_4 1_555 1_555
C8_4 C7_4 1_555 1_555
H7_4 C8_4 1_555 1_555
C9_4 C8_4 1_555 1_555
C10_4 C1_4 1_555 1_555
H8_4 C10_4 1_555 1_555
C11_4 C5_4 1_555 1_555
H9_4 C11_4 1_555 1_555
H10_4 C11_4 1_555 1_555
C12_4 C9_4 1_555 1_555
H11_4 C12_4 1_555 1_555
H12_4 C12_4 1_555 1_555
V4_4 O4_4 1_555 1_555
Ni2_4 N2_4 1_555 1_555
C5_4 C6_4 1_555 1_555
C9_4 C10_4 1_555 1_555
C11_4 C12_4 1_555 1_555
N1_5 C2_5 1_555 1_555
C2_5 H2_5 1_555 1_555
C3_5 N1_5 1_555 1_555
H3_5 C3_5 1_555 1_555
C4_5 C3_5 1_555 1_555
H4_5 C4_5 1_555 1_555
C5_5 C4_5 1_555 1_555
C6_5 C2_5 1_555 1_555
H5_5 C6_5 1_555 1_555
O1_5 V4_2 1_555 1_555
O2_5 V5_3 1_555 1_555
O3_5 Ni2_4 1_555 1_555
O9_3 Ni2_4 1_555 1_555
O7_5 V4_2 1_555 1_555
Ni2_4 N1_5 1_555 1_555
H13_5 O3_5 1_555 1_555
H14_3 O3_5 1_555 1_555
O10_3 V4_2 1_555 1_555
C5_5 C6_5 1_555 1_555
O2_5 Ni2_4 1_555 1_555
O7_5 Ni2_4 1_555 1_555
V4_3 O6_3 1_555 1_555
N3_4 C1_5 1_555 1_555
C1_5 H1_5 1_555 1_555
C7_5 N3_4 1_555 1_555
H6_5 C7_5 1_555 1_555
C8_5 C7_5 1_555 1_555
H7_5 C8_5 1_555 1_555
C9_5 C8_5 1_555 1_555
C10_5 C1_5 1_555 1_555
H8_5 C10_5 1_555 1_555
H9_5 C11_5 1_555 1_555
H10_5 C11_5 1_555 1_555
C12_5 C9_5 1_555 1_555
H11_5 C12_5 1_555 1_555
H12_5 C12_5 1_555 1_555
C9_5 C10_5 1_555 1_555
C11_5 C12_5 1_555 1_555
N3_3 C1_6 1_555 1_555
C1_6 H1_6 1_555 1_555
C7_6 N3_3 1_555 1_555
H6_6 C7_6 1_555 1_555
C8_6 C7_6 1_555 1_555
H7_6 C8_6 1_555 1_555
C9_6 C8_6 1_555 1_555
C10_6 C1_6 1_555 1_555
H8_6 C10_6 1_555 1_555
H9_6 C11_6 1_555 1_555
H10_6 C11_6 1_555 1_555
C12_6 C9_6 1_555 1_555
H11_6 C12_6 1_555 1_555
H12_6 C12_6 1_555 1_555
C9_6 C10_6 1_555 1_555
C11_6 C12_6 1_555 1_555
H5_6 C6_6 1_555 1_555
C5_6 C6_6 1_555 1_555
N1_6 C2_6 1_555 1_555
C2_6 H2_6 1_555 1_555
C3_6 N1_6 1_555 1_555
H3_6 C3_6 1_555 1_555
C4_6 C3_6 1_555 1_555
H4_6 C4_6 1_555 1_555
O1_6 V4 1_555 1_555
O2_6 V5_4 1_555 1_555
O3_6 Ni2_3 1_555 1_555
O9_4 Ni2_3 1_555 1_555
O7_6 V4 1_555 1_555
Ni2_3 N1_6 1_555 1_555
H13_6 O3_6 1_555 1_555
H14_4 O3_6 1_555 1_555
O10_4 V4 1_555 1_555
O2_6 Ni2_3 1_555 1_555
O7_6 Ni2_3 1_555 1_555
V4_4 O6_4 1_555 1_555
N1_7 C2_7 1_555 1_555
N3_2 C1_7 1_555 1_555
C1_7 H1_7 1_555 1_555
C2_7 H2_7 1_555 1_555
C3_7 N1_7 1_555 1_555
H3_7 C3_7 1_555 1_555
C4_7 C3_7 1_555 1_555
H4_7 C4_7 1_555 1_555
C5_7 C4_7 1_555 1_555
C6_7 C2_7 1_555 1_555
H5_7 C6_7 1_555 1_555
C7_7 N3_2 1_555 1_555
H6_7 C7_7 1_555 1_555
C8_7 C7_7 1_555 1_555
H7_7 C8_7 1_555 1_555
C9_7 C8_7 1_555 1_555
C10_7 C1_7 1_555 1_555
H8_7 C10_7 1_555 1_555
C11_7 C5_7 1_555 1_555
H9_7 C11_7 1_555 1_555
H10_7 C11_7 1_555 1_555
C12_7 C9_7 1_555 1_555
H11_7 C12_7 1_555 1_555
H12_7 C12_7 1_555 1_555
O1_7 V4_4 1_555 1_555
O2_7 V5 1_555 1_555
O3_7 Ni2_2 1_555 1_555
O8_4 V5 1_555 1_555
O9 Ni2_2 1_555 1_555
O10_4 V5 1_555 1_555
O7_7 V4_4 1_555 1_555
Ni2_2 N1_7 1_555 1_555
H13_7 O3_7 1_555 1_555
C5_7 C6_7 1_555 1_555
C9_7 C10_7 1_555 1_555
C11_7 C12_7 1_555 1_555
O2_7 Ni2_2 1_555 1_555
O7_7 Ni2_2 1_555 1_555
N3 C1_8 1_555 1_555
C1_8 H1_8 1_555 1_555
H5_8 C6_8 1_555 1_555
C7_8 N3 1_555 1_555
H6_8 C7_8 1_555 1_555
C8_8 C7_8 1_555 1_555
H7_8 C8_8 1_555 1_555
C9_8 C8_8 1_555 1_555
C10_8 C1_8 1_555 1_555
H8_8 C10_8 1_555 1_555
C11_8 C5_8 1_555 1_555
H9_8 C11_8 1_555 1_555
H10_8 C11_8 1_555 1_555
C12_8 C9_8 1_555 1_555
H11_8 C12_8 1_555 1_555
H12_8 C12_8 1_555 1_555
C5_8 C6_8 1_555 1_555
C9_8 C10_8 1_555 1_555
C11_8 C12_8 1_555 1_555
N1_8 C2_8 1_555 1_555
C2_8 H2_8 1_555 1_555
C3_8 N1_8 1_555 1_555
H3_8 C3_8 1_555 1_555
C4_8 C3_8 1_555 1_555
H4_8 C4_8 1_555 1_555
O1_8 V4_3 1_555 1_555
O2_8 V5_2 1_555 1_555
O3_8 Ni2 1_555 1_555
O9_2 Ni2 1_555 1_555
O10_3 V5_2 1_555 1_555
O7_8 V4_3 1_555 1_555
Ni2 N1_8 1_555 1_555
H13_8 O3_8 1_555 1_555
O2_8 Ni2 1_555 1_555
O7_8 Ni2 1_555 1_555

#END
