
###############################################################################
#
# This file contains modified crystal structure data generated from the
# MOF subset of the Cambridge Structural Database (CSD) v543 
# hosted by the Cambridge Crystallographic Data Centre (CCDC).
#
# This work is licensed under the Creative Commons
# Attribution-NonCommercial-ShareAlike 4.0 International License.
# To view a copy of this license, visit
# http://creativecommons.org/licenses/by-nc-sa/4.0/
# or send a letter to
# Creative Commons, PO Box 1866, Mountain View, CA 94042, USA.
#
# CIF created using the CSD Python API on 29 September 2022
# The structure has been converted into the P1 space group
# The structure has a 3D framework
# The original CSD entry ZEHCOI is in the hexagonal crystal system
# The original CSD entry ZEHCOI is in a Sohncke space group
# The framework has been calculated to contain at least 10.0% void space
# The void calculation uses a probe of radius 1.32A, grid spacing 0.4
#
###############################################################################

data_ZEHCOI
_chemical_formula_moiety         '(C106 H48 F36 O24 Zn4)n'
_symmetry_cell_setting           triclinic
_symmetry_space_group_name_H-M   'P 1'
_symmetry_Int_Tables_number      1
_space_group_name_Hall           'P 1'
loop_
_symmetry_equiv_pos_site_id
_symmetry_equiv_pos_as_xyz
1 x,y,z
_cell_length_a                   21.2074(7)
_cell_length_b                   21.2074(7)
_cell_length_c                   7.6761(4)
_cell_angle_alpha                90
_cell_angle_beta                 90
_cell_angle_gamma                120
_cell_volume                     2989.83
loop_
_atom_site_label
_atom_site_type_symbol
_atom_site_fract_x
_atom_site_fract_y
_atom_site_fract_z
C9 C 0.2741(3) 0.000000 0.500000
O3 O 0.53531(25) 0.24158(18) 0.0191(4)
O4 O 0.60082(23) 0.23963(16) 0.2460(4)
F4 F 0.30047(25) 0.07130(18) 0.7578(6)
F5 F 0.18711(25) 0.0024(2) 0.6965(6)
F6 F 0.25247(24) 0.09865(18) 0.5464(7)
C10 C 0.54227(28) 0.21907(19) 0.1663(5)
C11 C 0.4732(3) 0.1626(2) 0.2517(6)
C12 C 0.3434(3) 0.0820(2) 0.2388(7)
H5 H 0.298735 0.063031 0.177116
C13 C 0.3444(3) 0.0572(2) 0.4053(7)
C14 C 0.4076(3) 0.1346(2) 0.1621(7)
H6 H 0.406696 0.151574 0.048111
C15 C 0.2524(4) 0.0427(3) 0.6257(11)
C16 C 0.4744(3) 0.1381(2) 0.4181(6)
H7 H 0.519143 0.157277 0.479943
C17 C 0.4099(3) 0.0853(2) 0.4945(6)
H8 H 0.410722 0.068361 0.608638
Zn3 Zn 0.70025(2) 0.29975(2) 0.166667
Zn4 Zn 0.59950(3) 0.29975(2) 0.833334
C9_2 C 1.000000 0.27410(30) 0.833333
O3_2 O 0.75842(18) 0.29373(31) 0.3524(4)
O4_2 O 0.76037(16) 0.36119(28) 0.5793(4)
F6_2 F 0.90135(18) 0.15382(30) 0.8797(7)
C10_2 C 0.78093(19) 0.32320(34) 0.4996(5)
C11_2 C 0.8374(2) 0.3106(4) 0.5850(6)
C12_2 C 0.9180(2) 0.2614(4) 0.5721(7)
H5_2 H 0.936969 0.235704 0.510449
C13_2 C 0.9428(2) 0.2872(4) 0.7386(7)
C14_2 C 0.8654(2) 0.2730(4) 0.4954(7)
H6_2 H 0.848426 0.255122 0.381444
C15_2 C 0.9573(3) 0.2097(5) 0.9590(11)
C16_2 C 0.8619(2) 0.3363(4) 0.7514(6)
H7_2 H 0.842723 0.361866 0.813276
C17_2 C 0.9147(2) 0.3246(4) 0.8278(6)
H8_2 H 0.931639 0.342361 0.941971
Zn3_2 Zn 0.70025(2) 0.40050(3) 0.500000
F1 F 0.69953(25) 0.77083(18) 0.9089(6)
F2 F 0.81289(25) 0.81529(15) 0.9702(6)
O3_3 O 0.70627(31) 0.46469(25) 0.6858(4)
O4_3 O 0.63881(28) 0.39918(23) 0.9127(4)
C10_3 C 0.67680(34) 0.45773(28) 0.8330(5)
C11_3 C 0.6894(4) 0.5268(3) 0.9184(6)
C12_3 C 0.7386(4) 0.6566(3) 0.9055(7)
H5_3 H 0.764296 0.701265 0.843783
C14_3 C 0.7270(4) 0.5924(3) 0.8288(7)
H6_3 H 0.744878 0.593304 0.714778
O6 O 0.76037(16) 0.39918(23) 0.0873(4)
O1 O 0.70627(18) 0.24158(18) 0.9809(4)
O2 O 0.63881(16) 0.23963(16) 0.7540(4)
F1_2 F 0.77083(18) 0.07130(18) 0.2422(6)
F2_2 F 0.81529(15) 0.0024(2) 0.3035(6)
F3 F 0.84618(16) 0.09865(18) 0.4536(7)
C1 C 0.6768(2) 0.21907(19) 0.8337(5)
C2 C 0.6894(2) 0.1626(2) 0.7483(6)
C3 C 0.7386(2) 0.0820(2) 0.7612(7)
H1 H 0.764296 0.063031 0.822884
C4 C 0.7128(2) 0.0572(2) 0.5947(7)
C5 C 0.7270(2) 0.1346(2) 0.8379(7)
H2 H 0.744878 0.151574 0.951889
C6 C 0.7903(3) 0.0427(3) 0.3743(11)
C7 C 0.6637(2) 0.1381(2) 0.5819(6)
H3 H 0.638134 0.157277 0.520057
C8 C 0.6754(2) 0.0853(2) 0.5055(6)
H4 H 0.657639 0.068361 0.391362
C9_3 C 0.7259(3) 0.000000 0.500000
O1_2 O 0.75842(18) 0.46469(25) 0.3142(4)
C1_2 C 0.78093(19) 0.45773(28) 0.1670(5)
C2_2 C 0.8374(2) 0.5268(3) 0.0816(6)
C3_2 C 0.9180(2) 0.6566(3) 0.0945(7)
H1_2 H 0.936969 0.701265 0.156217
C5_2 C 0.8654(2) 0.5924(3) 0.1712(7)
H2_2 H 0.848426 0.593304 0.285222
O6_2 O 0.60082(23) 0.36119(28) 0.4207(4)
O1_3 O 0.53531(25) 0.29373(18) 0.6476(4)
F3_2 F 0.25247(24) 0.15382(16) 0.1203(7)
C1_3 C 0.54227(28) 0.3232(2) 0.5004(5)
C2_3 C 0.4732(3) 0.3106(2) 0.4150(6)
C3_3 C 0.3434(3) 0.2614(2) 0.4279(7)
H1_3 H 0.298735 0.235704 0.489551
C4_2 C 0.3444(3) 0.2872(2) 0.2614(7)
C5_3 C 0.4076(3) 0.2730(2) 0.5046(7)
H2_3 H 0.406696 0.255122 0.618556
C6_2 C 0.2524(4) 0.2097(3) 0.0410(11)
C7_2 C 0.4744(3) 0.3363(2) 0.2486(6)
H3_2 H 0.519143 0.361866 0.186724
C8_2 C 0.4099(3) 0.3246(2) 0.1722(6)
H4_2 H 0.410722 0.342361 0.058029
C9_4 C 0.27410(30) 0.2741(3) 0.166667
F4_2 F 0.22917(31) 0.30047(25) 0.4245(6)
F5_2 F 0.18471(32) 0.18711(25) 0.3632(6)
F6_3 F 0.15382(30) 0.25247(24) 0.2131(7)
C13_3 C 0.2872(4) 0.3444(3) 0.0720(7)
C15_3 C 0.2097(5) 0.2524(4) 0.2924(11)
C16_3 C 0.3363(4) 0.4744(3) 0.0848(6)
H7_3 H 0.361866 0.519143 0.146610
C17_3 C 0.3246(4) 0.4099(3) 0.1612(6)
H8_3 H 0.342361 0.410722 0.275305
Zn1 Zn 0.29975(2) 0.70025(2) 0.166667
O5 O 0.24158(18) 0.70627(18) 0.3524(4)
O6_3 O 0.23963(16) 0.60082(23) 0.0873(4)
O7 O 0.39918(23) 0.76037(16) 0.2460(4)
O1_4 O 0.29373(18) 0.75842(18) 0.9809(4)
O2_2 O 0.36119(16) 0.76037(16) 0.7540(4)
F1_3 F 0.22917(18) 0.92870(18) 0.2422(6)
F2_3 F 0.18471(15) 0.9976(2) 0.3035(6)
F3_3 F 0.15382(16) 0.90135(18) 0.4536(7)
C1_4 C 0.3232(2) 0.78093(19) 0.8337(5)
C2_4 C 0.3106(2) 0.8374(2) 0.7483(6)
C3_4 C 0.2614(2) 0.9180(2) 0.7612(7)
H1_4 H 0.235704 0.936969 0.822884
C4_3 C 0.2872(2) 0.9428(2) 0.5947(7)
C5_4 C 0.2730(2) 0.8654(2) 0.8379(7)
H2_4 H 0.255122 0.848426 0.951889
C6_3 C 0.2097(3) 0.9573(3) 0.3743(11)
C7_3 C 0.3363(2) 0.8619(2) 0.5819(6)
H3_3 H 0.361866 0.842723 0.520057
C8_3 C 0.3246(2) 0.9147(2) 0.5055(6)
H4_3 H 0.342361 0.931639 0.391362
C9_5 C 0.2741(3) 1.000000 0.500000
Zn2 Zn 0.40050(3) 0.70025(2) 0.833334
Zn1_2 Zn 0.29975(2) 0.59950(3) 0.500000
O1_5 O 0.24158(18) 0.53531(25) 0.3142(4)
C1_5 C 0.21907(19) 0.54227(28) 0.1670(5)
C2_5 C 0.1626(2) 0.4732(3) 0.0816(6)
C3_5 C 0.0820(2) 0.3434(3) 0.0945(7)
H1_5 H 0.063031 0.298735 0.156217
C5_5 C 0.1346(2) 0.4076(3) 0.1712(7)
H2_5 H 0.151574 0.406696 0.285222
O5_2 O 0.29373(18) 0.53531(25) 0.6858(4)
O6_4 O 0.39918(23) 0.63881(28) 0.4207(4)
O7_2 O 0.23963(16) 0.63881(28) 0.5793(4)
O5_3 O 0.46469(25) 0.75842(18) 0.0191(4)
O1_6 O 0.46469(25) 0.70627(18) 0.6476(4)
F3_4 F 0.74753(24) 0.84618(16) 0.1203(7)
C1_6 C 0.45773(28) 0.6768(2) 0.5004(5)
C2_6 C 0.5268(3) 0.6894(2) 0.4150(6)
C3_6 C 0.6566(3) 0.7386(2) 0.4279(7)
H1_6 H 0.701265 0.764296 0.489551
C4_4 C 0.6556(3) 0.7128(2) 0.2614(7)
C5_6 C 0.5924(3) 0.7270(2) 0.5046(7)
H2_6 H 0.593304 0.744878 0.618556
C6_4 C 0.7476(4) 0.7903(3) 0.0410(11)
C7_4 C 0.5256(3) 0.6637(2) 0.2486(6)
H3_4 H 0.480857 0.638134 0.186724
C8_4 C 0.5901(3) 0.6754(2) 0.1722(6)
H4_4 H 0.589278 0.657639 0.058029
C9_6 C 0.72590(30) 0.7259(3) 0.166667
F4_3 F 0.77083(31) 0.69953(25) 0.4245(6)
F5_3 F 0.81529(32) 0.81289(25) 0.3632(6)
F6_4 F 0.84618(30) 0.74753(24) 0.2131(7)
C13_4 C 0.7128(4) 0.6556(3) 0.0720(7)
C15_4 C 0.7903(5) 0.7476(4) 0.2924(11)
C16_4 C 0.6637(4) 0.5256(3) 0.0848(6)
H7_4 H 0.638134 0.480857 0.146610
C17_4 C 0.6754(4) 0.5901(3) 0.1612(6)
H8_4 H 0.657639 0.589278 0.275305
O7_3 O 0.36119(28) 0.60082(23) 0.9127(4)
C9_7 C 0.7259(3) 1.000000 0.500000
F4_4 F 0.69953(25) 0.92870(18) 0.7578(6)
F5_4 F 0.81289(25) 0.9976(2) 0.6965(6)
F6_5 F 0.74753(24) 0.90135(18) 0.5464(7)
C10_4 C 0.45773(28) 0.78093(19) 0.1663(5)
C11_4 C 0.5268(3) 0.8374(2) 0.2517(6)
C12_4 C 0.6566(3) 0.9180(2) 0.2388(7)
H5_4 H 0.701265 0.936969 0.177116
C13_5 C 0.6556(3) 0.9428(2) 0.4053(7)
C14_4 C 0.5924(3) 0.8654(2) 0.1621(7)
H6_4 H 0.593304 0.848426 0.048111
C15_5 C 0.7476(4) 0.9573(3) 0.6257(11)
C16_5 C 0.5256(3) 0.8619(2) 0.4181(6)
H7_5 H 0.480857 0.842723 0.479943
C17_5 C 0.5901(3) 0.9147(2) 0.4945(6)
H8_5 H 0.589278 0.931639 0.608638
C9_8 C -0.000000 0.72590(30) 0.833333
F6_6 F 0.09865(18) 0.84618(30) 0.8797(7)
C10_5 C 0.21907(19) 0.67680(34) 0.4996(5)
C11_5 C 0.1626(2) 0.6894(4) 0.5850(6)
C12_5 C 0.0820(2) 0.7386(4) 0.5721(7)
H5_5 H 0.063031 0.764296 0.510449
C13_6 C 0.0572(2) 0.7128(4) 0.7386(7)
C14_5 C 0.1346(2) 0.7270(4) 0.4954(7)
H6_5 H 0.151574 0.744878 0.381444
C15_6 C 0.0427(3) 0.7903(5) 0.9590(11)
C16_6 C 0.1381(2) 0.6637(4) 0.7514(6)
H7_6 H 0.157277 0.638134 0.813276
C17_6 C 0.0853(2) 0.6754(4) 0.8278(6)
H8_6 H 0.068361 0.657639 0.941971
F1_4 F 0.30047(25) 0.22917(18) 0.9089(6)
F2_4 F 0.18711(25) 0.18471(15) 0.9702(6)
C10_6 C 0.32320(34) 0.54227(28) 0.8330(5)
C11_6 C 0.3106(4) 0.4732(3) 0.9184(6)
C12_6 C 0.2614(4) 0.3434(3) 0.9055(7)
H5_6 H 0.235704 0.298735 0.843783
C14_6 C 0.2730(4) 0.4076(3) 0.8288(7)
H6_6 H 0.255122 0.406696 0.714778
F1_5 F 0.07130(18) 0.30047(25) 0.5755(6)
F2_5 F 0.0024(2) 0.18711(25) 0.6368(6)
F3_5 F 0.09865(18) 0.25247(24) 0.7869(7)
C4_5 C 0.0572(2) 0.3444(3) 0.9280(7)
C6_5 C 0.0427(3) 0.2524(4) 0.7076(11)
C7_5 C 0.1381(2) 0.4744(3) 0.9152(6)
H3_5 H 0.157277 0.519143 0.853390
C8_5 C 0.0853(2) 0.4099(3) 0.8388(6)
H4_5 H 0.068361 0.410722 0.724695
C9_9 C -0.000000 0.27410(30) 0.833333
F4_5 F 0.92870(18) 0.22917(31) 0.0911(6)
F5_5 F 0.9976(2) 0.18471(32) 0.0298(6)
F4_6 F 0.07130(18) 0.77083(31) 0.0911(6)
F5_6 F 0.0024(2) 0.81529(32) 0.0298(6)
F1_6 F 0.92870(18) 0.69953(25) 0.5755(6)
F2_6 F 0.9976(2) 0.81289(25) 0.6368(6)
F3_6 F 0.90135(18) 0.74753(24) 0.7869(7)
C4_6 C 0.9428(2) 0.6556(3) 0.9280(7)
C6_6 C 0.9573(3) 0.7476(4) 0.7076(11)
C7_6 C 0.8619(2) 0.5256(3) 0.9152(6)
H3_6 H 0.842723 0.480857 0.853390
C8_6 C 0.9147(2) 0.5901(3) 0.8388(6)
H4_6 H 0.931639 0.589278 0.724695
C9_10 C 1.000000 0.72590(30) 0.833333
loop_
_geom_bond_atom_site_label_1
_geom_bond_atom_site_label_2
_geom_bond_site_symmetry_1
_geom_bond_site_symmetry_2
O3 C10 1_555 1_555
O4 C10 1_555 1_555
F4 C15 1_555 1_555
F5 C15 1_555 1_555
F6 C15 1_555 1_555
C10 C11 1_555 1_555
C11 C14 1_555 1_555
C12 H5 1_555 1_555
C13 C9 1_555 1_555
C14 C12 1_555 1_555
H6 C14 1_555 1_555
C15 C9 1_555 1_555
C16 C11 1_555 1_555
H7 C16 1_555 1_555
C17 C13 1_555 1_555
H8 C17 1_555 1_555
Zn3 O4 1_555 1_555
C12 C13 1_555 1_555
C16 C17 1_555 1_555
O3_2 C10_2 1_555 1_555
O4_2 C10_2 1_555 1_555
F6_2 C15_2 1_555 1_555
C10_2 C11_2 1_555 1_555
C11_2 C14_2 1_555 1_555
C12_2 H5_2 1_555 1_555
C13_2 C9_2 1_555 1_555
C14_2 C12_2 1_555 1_555
H6_2 C14_2 1_555 1_555
C15_2 C9_2 1_555 1_555
C16_2 C11_2 1_555 1_555
H7_2 C16_2 1_555 1_555
C17_2 C13_2 1_555 1_555
H8_2 C17_2 1_555 1_555
Zn3_2 O4_2 1_555 1_555
Zn3 O3_2 1_555 1_555
C12_2 C13_2 1_555 1_555
C16_2 C17_2 1_555 1_555
O3_3 C10_3 1_555 1_555
O4_3 C10_3 1_555 1_555
C10_3 C11_3 1_555 1_555
C11_3 C14_3 1_555 1_555
C12_3 H5_3 1_555 1_555
C14_3 C12_3 1_555 1_555
H6_3 C14_3 1_555 1_555
Zn4 O4_3 1_555 1_555
Zn3_2 O3_3 1_555 1_555
O6 Zn3 1_555 1_555
O1 C1 1_555 1_555
O2 C1 1_555 1_555
F1_2 C6 1_555 1_555
F2_2 C6 1_555 1_555
F3 C6 1_555 1_555
C1 C2 1_555 1_555
C2 C5 1_555 1_555
C3 H1 1_555 1_555
C4 C3 1_555 1_555
C5 C3 1_555 1_555
H2 C5 1_555 1_555
C6 C9_3 1_555 1_555
C7 C2 1_555 1_555
H3 C7 1_555 1_555
C8 C4 1_555 1_555
H4 C8 1_555 1_555
C9_3 C4 1_555 1_555
Zn4 O2 1_555 1_555
C7 C8 1_555 1_555
Zn3_2 O1_2 1_555 1_555
O1_2 C1_2 1_555 1_555
O6 C1_2 1_555 1_555
C1_2 C2_2 1_555 1_555
C2_2 C5_2 1_555 1_555
C3_2 H1_2 1_555 1_555
C5_2 C3_2 1_555 1_555
H2_2 C5_2 1_555 1_555
O6_2 Zn3_2 1_555 1_555
Zn4 O1_3 1_555 1_555
O1_3 C1_3 1_555 1_555
O6_2 C1_3 1_555 1_555
F3_2 C6_2 1_555 1_555
C1_3 C2_3 1_555 1_555
C2_3 C5_3 1_555 1_555
C3_3 H1_3 1_555 1_555
C4_2 C3_3 1_555 1_555
C5_3 C3_3 1_555 1_555
H2_3 C5_3 1_555 1_555
C6_2 C9_4 1_555 1_555
C7_2 C2_3 1_555 1_555
H3_2 C7_2 1_555 1_555
C8_2 C4_2 1_555 1_555
H4_2 C8_2 1_555 1_555
C9_4 C4_2 1_555 1_555
F4_2 C15_3 1_555 1_555
F5_2 C15_3 1_555 1_555
F6_3 C15_3 1_555 1_555
C13_3 C9_4 1_555 1_555
C15_3 C9_4 1_555 1_555
H7_3 C16_3 1_555 1_555
C17_3 C13_3 1_555 1_555
H8_3 C17_3 1_555 1_555
C7_2 C8_2 1_555 1_555
C16_3 C17_3 1_555 1_555
O5 Zn1 1_555 1_555
O6_3 Zn1 1_555 1_555
O7 Zn1 1_555 1_555
O1_4 C1_4 1_555 1_555
O2_2 C1_4 1_555 1_555
F1_3 C6_3 1_555 1_555
F2_3 C6_3 1_555 1_555
F3_3 C6_3 1_555 1_555
C1_4 C2_4 1_555 1_555
C2_4 C5_4 1_555 1_555
C3_4 H1_4 1_555 1_555
C4_3 C3_4 1_555 1_555
C5_4 C3_4 1_555 1_555
H2_4 C5_4 1_555 1_555
C6_3 C9_5 1_555 1_555
C7_3 C2_4 1_555 1_555
H3_3 C7_3 1_555 1_555
C8_3 C4_3 1_555 1_555
H4_3 C8_3 1_555 1_555
C9_5 C4_3 1_555 1_555
Zn2 O2_2 1_555 1_555
C7_3 C8_3 1_555 1_555
Zn1_2 O1_5 1_555 1_555
O1_5 C1_5 1_555 1_555
O6_3 C1_5 1_555 1_555
C1_5 C2_5 1_555 1_555
C2_5 C5_5 1_555 1_555
C3_5 H1_5 1_555 1_555
C5_5 C3_5 1_555 1_555
H2_5 C5_5 1_555 1_555
O5_2 Zn1_2 1_555 1_555
O6_4 Zn1_2 1_555 1_555
O7_2 Zn1_2 1_555 1_555
Zn2 O1_6 1_555 1_555
O1_6 C1_6 1_555 1_555
O6_4 C1_6 1_555 1_555
F3_4 C6_4 1_555 1_555
C1_6 C2_6 1_555 1_555
C2_6 C5_6 1_555 1_555
C3_6 H1_6 1_555 1_555
C4_4 C3_6 1_555 1_555
C5_6 C3_6 1_555 1_555
H2_6 C5_6 1_555 1_555
C6_4 C9_6 1_555 1_555
C7_4 C2_6 1_555 1_555
H3_4 C7_4 1_555 1_555
C8_4 C4_4 1_555 1_555
H4_4 C8_4 1_555 1_555
C9_6 C4_4 1_555 1_555
F4_3 C15_4 1_555 1_555
F5_3 C15_4 1_555 1_555
F6_4 C15_4 1_555 1_555
C13_4 C9_6 1_555 1_555
C15_4 C9_6 1_555 1_555
H7_4 C16_4 1_555 1_555
C17_4 C13_4 1_555 1_555
H8_4 C17_4 1_555 1_555
O7_3 Zn2 1_555 1_555
C7_4 C8_4 1_555 1_555
C16_4 C17_4 1_555 1_555
O5_3 C10_4 1_555 1_555
O7 C10_4 1_555 1_555
F4_4 C15_5 1_555 1_555
F5_4 C15_5 1_555 1_555
F6_5 C15_5 1_555 1_555
C10_4 C11_4 1_555 1_555
C11_4 C14_4 1_555 1_555
C12_4 H5_4 1_555 1_555
C13_5 C9_7 1_555 1_555
C14_4 C12_4 1_555 1_555
H6_4 C14_4 1_555 1_555
C15_5 C9_7 1_555 1_555
C16_5 C11_4 1_555 1_555
H7_5 C16_5 1_555 1_555
C17_5 C13_5 1_555 1_555
H8_5 C17_5 1_555 1_555
C12_4 C13_5 1_555 1_555
C16_5 C17_5 1_555 1_555
O5 C10_5 1_555 1_555
O7_2 C10_5 1_555 1_555
F6_6 C15_6 1_555 1_555
C10_5 C11_5 1_555 1_555
C11_5 C14_5 1_555 1_555
C12_5 H5_5 1_555 1_555
C13_6 C9_8 1_555 1_555
C14_5 C12_5 1_555 1_555
H6_5 C14_5 1_555 1_555
C15_6 C9_8 1_555 1_555
C16_6 C11_5 1_555 1_555
H7_6 C16_6 1_555 1_555
C17_6 C13_6 1_555 1_555
H8_6 C17_6 1_555 1_555
C12_5 C13_6 1_555 1_555
C16_6 C17_6 1_555 1_555
O5_2 C10_6 1_555 1_555
O7_3 C10_6 1_555 1_555
C10_6 C11_6 1_555 1_555
C11_6 C14_6 1_555 1_555
C12_6 H5_6 1_555 1_555
C14_6 C12_6 1_555 1_555
H6_6 C14_6 1_555 1_555
F1_5 C6_5 1_555 1_555
F2_5 C6_5 1_555 1_555
F3_5 C6_5 1_555 1_555
C6_5 C9_9 1_555 1_555
H3_5 C7_5 1_555 1_555
C8_5 C4_5 1_555 1_555
H4_5 C8_5 1_555 1_555
C9_9 C4_5 1_555 1_555
C7_5 C8_5 1_555 1_555
F1_6 C6_6 1_555 1_555
F2_6 C6_6 1_555 1_555
F3_6 C6_6 1_555 1_555
C6_6 C9_10 1_555 1_555
H3_6 C7_6 1_555 1_555
C8_6 C4_6 1_555 1_555
H4_6 C8_6 1_555 1_555
C9_10 C4_6 1_555 1_555
C7_6 C8_6 1_555 1_555

#END
