
###############################################################################
#
# This file contains modified crystal structure data generated from the
# MOF subset of the Cambridge Structural Database (CSD) v543 
# hosted by the Cambridge Crystallographic Data Centre (CCDC).
#
# This work is licensed under the Creative Commons
# Attribution-NonCommercial-ShareAlike 4.0 International License.
# To view a copy of this license, visit
# http://creativecommons.org/licenses/by-nc-sa/4.0/
# or send a letter to
# Creative Commons, PO Box 1866, Mountain View, CA 94042, USA.
#
# CIF created using the CSD Python API on 29 September 2022
# The structure has been converted into the P1 space group
# The structure has a 3D framework
# The original CSD entry ZEHDOJ is in the triclinic crystal system
# The framework has been calculated to contain at least 10.0% void space
# The void calculation uses a probe of radius 1.32A, grid spacing 0.4
# H atom positions have been added when not included in the experimental data
#
###############################################################################

data_ZEHDOJ
_chemical_formula_moiety         '(C32 H34 Mn12 O35 S4)n'
_symmetry_cell_setting           triclinic
_symmetry_space_group_name_H-M   'P 1'
_symmetry_Int_Tables_number      1
_space_group_name_Hall           'P 1'
loop_
_symmetry_equiv_pos_site_id
_symmetry_equiv_pos_as_xyz
1 x,y,z
_cell_length_a                   11.0135(5)
_cell_length_b                   12.5223(6)
_cell_length_c                   13.9139(6)
_cell_angle_alpha                94.1290(10)
_cell_angle_beta                 98.6280(10)
_cell_angle_gamma                109.4440(10)
_cell_volume                     1773.64
loop_
_atom_site_label
_atom_site_type_symbol
_atom_site_fract_x
_atom_site_fract_y
_atom_site_fract_z
Mn17 Mn 0.0000 0.0000 0.0000
Mn13 Mn 0.00668(8) 0.05650(7) 0.38193(6)
Mn17_2 Mn -0.0000 0.0000 1.0000
Mn17_3 Mn 0.0000 1.0000 0.0000
Mn17_4 Mn -0.0000 1.0000 1.0000
O7 O 0.3868(5) 0.2609(4) 0.0137(4)
O25 O 0.4381(5) 0.1250(4) 0.2970(3)
C23 C 0.4629(6) 0.0352(5) 0.0087(4)
C24 C 0.4467(6) 0.0608(5) 0.1062(4)
H15 H 0.4013 0.1095 0.1188
C25 C 0.4974(5) 0.0143(5) 0.1820(4)
C26 C 0.4771(5) 0.0439(5) 0.2846(4)
Mn8 Mn 0.5000 0.0000 0.5000
Mn11 Mn 0.36459(7) 0.21425(7) 0.39743(6)
Mn17_5 Mn 1.0000 0.0000 0.0000
O45 O 0.0502(4) 0.0602(4) 0.1574(3)
S2 S 0.30758(14) 0.16169(13) 0.94588(10)
O3 O 0.4980(4) 0.0162(4) 0.6526(3)
O5 O 0.2612(5) 0.1862(4) 0.8499(3)
O6 O 0.2021(4) 0.0856(5) 0.9876(3)
C5 C 0.4305(5) 0.0571(5) 0.8350(4)
H8 H 0.3977 0.0891 0.7835
C6 C 0.4084(5) 0.0797(5) 0.9282(4)
H12 H 0.7350 0.0178 0.4208
O34 O 0.0542(5) 0.1063(4) 0.7008(3)
H17 H 0.1413 0.1543 0.7098
H23 H 0.0151 0.2122 0.9493
Mn17_6 Mn 1.0000 0.0000 1.0000
O37 O 0.6558(4) 0.1693(3) 0.5179(3)
O46 O 0.3293(3) 0.0647(3) 0.4802(3)
O50 O 0.1267(3) 0.0167(3) 0.5109(3)
O16 O 0.0493(7) 0.8523(6) 0.0378(5)
H2 H 0.1347 0.8535 0.0410
S4 S 0.69242(14) 0.83831(13) 0.05412(10)
O24 O 0.5020(4) 0.9838(4) 0.3474(3)
O26 O 0.7388(5) 0.8138(4) 0.1501(3)
O27 O 0.7979(4) 0.9144(5) 0.0124(3)
C27 C 0.5695(5) 0.9429(5) 0.1650(4)
H16 H 0.6023 0.9109 0.2165
C28 C 0.5916(5) 0.9203(5) 0.0718(4)
Mn8_2 Mn 0.5000 1.0000 0.5000
Mn17_7 Mn 1.0000 1.0000 0.0000
Mn2 Mn 0.63541(7) 0.78575(7) 0.60257(6)
S1 S 0.15990(13) 0.30673(11) 0.52640(11)
O1 O 0.4554(4) 0.7116(3) 0.5054(3)
O2 O 0.3442(4) 0.8307(3) 0.4821(3)
O4 O 0.5619(5) 0.8750(4) 0.7030(3)
O8 O 0.1652(6) 0.3019(5) 0.6301(4)
O9 O 0.2823(4) 0.3143(3) 0.4951(3)
O10 O 0.0489(4) 0.2160(4) 0.4669(4)
O11 O 0.1676(4) 0.1320(4) 0.3056(3)
O13 O 0.6707(3) 0.9353(3) 0.5198(3)
O14 O 0.8733(3) 0.9833(3) 0.4891(3)
O15 O 0.5975(7) 0.6452(5) 0.6875(5)
C1 C 0.5371(6) 0.9648(5) 0.9913(4)
C2 C 0.5533(6) 0.9392(5) 0.8938(4)
H7 H 0.5987 0.8905 0.8812
C3 C 0.5026(5) 0.9857(5) 0.8180(4)
C4 C 0.5229(5) 0.9561(5) 0.7154(4)
C7 C 0.3518(5) 0.7348(4) 0.4904(4)
C8 C 0.2271(5) 0.6340(4) 0.4879(4)
C9 C 0.1081(5) 0.6472(5) 0.4833(4)
H9 H 0.1009 0.7177 0.4732
C11 C 0.2377(5) 0.5260(5) 0.4974(4)
H10 H 0.3181 0.5167 0.4978
C12 C 0.1317(5) 0.4353(4) 0.5061(4)
C13 C 0.1511(6) 0.1184(6) 0.2120(4)
H11 H 0.2221 0.1560 0.1836
C14 C 0.7580(5) 0.9814(5) 0.4728(4)
C15 C 0.5257(13) 0.4827(11) 0.7524(10)
C16 C 0.5578(16) 0.5483(15) 0.6830(12)
C20 C 0.0050(5) 0.4451(4) 0.5063(4)
O28 O 0.6132(5) 0.7391(4) 0.9863(4)
O35 O 0.1373(5) 0.8901(5) 0.7054(4)
H19 H 0.1957 0.9395 0.7583
H20 H 0.1409 0.8179 0.6900
Mn15 Mn 0.99332(8) 0.94350(7) 0.61807(6)
Mn17_8 Mn 1.0000 1.0000 1.0000
O42 O 0.7177(4) 0.6857(3) 0.5049(3)
O44 O 0.8324(4) 0.8680(4) 0.6944(3)
H25 H 0.448463 0.500824 0.783415
H26 H 0.491021 0.393259 0.720989
H27 H 0.611232 0.500099 0.809836
H28 H 0.631257 0.521429 0.654307
H29 H 0.468487 0.522154 0.627886
H4 H 0.0059 0.8699 0.2718
H18 H 0.9941 0.1301 0.7282
O36 O 0.9507(7) 0.1477(6) 0.9622(5)
H24 H 0.8653 0.1465 0.9590
H1 H 0.9849 0.7878 0.0507
O18 O 0.8627(5) 0.1099(5) 0.2946(4)
H5 H 0.8043 0.0605 0.2417
H6 H 0.8591 0.1821 0.3100
C10 C 0.9950(5) 0.5549(4) 0.4937(4)
S3 S 0.84010(13) 0.69327(11) 0.47360(11)
O19 O 0.5446(4) 0.2884(3) 0.4946(3)
O21 O 0.8348(6) 0.6981(5) 0.3699(4)
O23 O 0.9511(4) 0.7840(4) 0.5331(4)
C17 C 0.6482(5) 0.2652(4) 0.5096(4)
C18 C 0.7729(5) 0.3660(4) 0.5121(4)
C19 C 0.8919(5) 0.3528(5) 0.5167(4)
H13 H 0.8991 0.2823 0.5268
C21 C 0.7623(5) 0.4740(5) 0.5026(4)
H14 H 0.6819 0.4833 0.5022
C22 C 0.8683(5) 0.5647(4) 0.4939(4)
O30 O 0.9498(4) 0.9398(4) 0.8426(3)
O33 O 0.4025(7) 0.3548(5) 0.3125(5)
C29 C 0.8489(6) 0.8816(6) 0.7880(4)
H21 H 0.7779 0.8440 0.8164
C30 C 0.2420(5) 0.0186(5) 0.5272(4)
C31 C 0.4743(13) 0.5173(11) 0.2476(10)
C32 C 0.4422(16) 0.4517(15) 0.3170(12)
H30 H 0.388768 0.499901 0.190164
H31 H 0.508979 0.606741 0.279011
H32 H 0.551537 0.499176 0.216585
H33 H 0.531513 0.477846 0.372114
H34 H 0.368743 0.478571 0.345693
O17 O 0.9458(5) 0.8937(4) 0.2992(3)
H3 H 0.8587 0.8457 0.2902
H22 H 0.2650 0.9822 0.5792
loop_
_geom_bond_atom_site_label_1
_geom_bond_atom_site_label_2
_geom_bond_site_symmetry_1
_geom_bond_site_symmetry_2
O25 C26 1_555 1_555
C24 C23 1_555 1_555
H15 C24 1_555 1_555
C25 C24 1_555 1_555
C26 C25 1_555 1_555
Mn11 O25 1_555 1_555
O45 Mn17 1_555 1_555
Mn17_2 O6 1_555 1_555
S2 O5 1_555 1_555
O3 Mn8 1_555 1_555
O6 S2 1_555 1_555
H8 C5 1_555 1_555
C6 S2 1_555 1_555
H17 O34 1_555 1_555
O37 Mn8 1_555 1_555
O46 Mn8 1_555 1_555
C5 C6 1_555 1_555
O16 Mn17_3 1_555 1_555
H2 O16 1_555 1_555
S4 O26 1_555 1_555
O27 S4 1_555 1_555
H16 C27 1_555 1_555
Mn8_2 O24 1_555 1_555
Mn17_7 O27 1_555 1_555
S4 C28 1_555 1_555
C27 C28 1_555 1_555
Mn8_2 O2 1_555 1_555
Mn2 O1 1_555 1_555
Mn13 O10 1_555 1_555
S1 O8 1_555 1_555
O1 C7 1_555 1_555
O2 C7 1_555 1_555
O4 Mn2 1_555 1_555
O9 S1 1_555 1_555
O10 S1 1_555 1_555
O11 Mn13 1_555 1_555
O45 C13 1_555 1_555
O13 Mn8_2 1_555 1_555
O14 C14 1_555 1_555
O15 Mn2 1_555 1_555
C1 C2 1_555 1_555
C2 H7 1_555 1_555
C3 C2 1_555 1_555
C7 C8 1_555 1_555
C8 C9 1_555 1_555
C9 H9 1_555 1_555
C11 C8 1_555 1_555
H10 C11 1_555 1_555
C12 S1 1_555 1_555
C13 O11 1_555 1_555
H11 C13 1_555 1_555
C14 O13 1_555 1_555
C15 C16 1_555 1_555
C16 O15 1_555 1_555
H19 O35 1_555 1_555
H20 O35 1_555 1_555
Mn11 O9 1_555 1_555
Mn15 O14 1_555 1_555
O42 Mn2 1_555 1_555
O44 Mn2 1_555 1_555
O50 Mn13 1_555 1_555
Mn2 O13 1_555 1_555
O4 C4 1_555 1_555
O11 Mn11 1_555 1_555
C3 C4 1_555 1_555
C11 C12 1_555 1_555
C12 C20 1_555 1_555
Mn15 O44 1_555 1_555
C15 H25 1_555 1_555
C15 H26 1_555 1_555
C15 H27 1_555 1_555
C16 H28 1_555 1_555
C16 H29 1_555 1_555
O36 Mn17_6 1_555 1_555
H24 O36 1_555 1_555
H5 O18 1_555 1_555
H6 O18 1_555 1_555
S3 O21 1_555 1_555
O19 C17 1_555 1_555
O37 C17 1_555 1_555
O42 S3 1_555 1_555
O23 S3 1_555 1_555
C17 C18 1_555 1_555
C18 C19 1_555 1_555
C19 H13 1_555 1_555
C21 C18 1_555 1_555
H14 C21 1_555 1_555
C22 C10 1_555 1_555
Mn11 O19 1_555 1_555
Mn15 O23 1_555 1_555
O30 Mn17_8 1_555 1_555
O46 Mn11 1_555 1_555
O50 C30 1_555 1_555
O33 Mn11 1_555 1_555
C29 O44 1_555 1_555
H21 C29 1_555 1_555
C30 O46 1_555 1_555
C31 C32 1_555 1_555
C32 O33 1_555 1_555
S3 C22 1_555 1_555
C21 C22 1_555 1_555
O30 C29 1_555 1_555
C31 H30 1_555 1_555
C31 H31 1_555 1_555
C31 H32 1_555 1_555
C32 H33 1_555 1_555
C32 H34 1_555 1_555
H3 O17 1_555 1_555

#END
