
###############################################################################
#
# This file contains modified crystal structure data generated from the
# MOF subset of the Cambridge Structural Database (CSD) v543 
# hosted by the Cambridge Crystallographic Data Centre (CCDC).
#
# This work is licensed under the Creative Commons
# Attribution-NonCommercial-ShareAlike 4.0 International License.
# To view a copy of this license, visit
# http://creativecommons.org/licenses/by-nc-sa/4.0/
# or send a letter to
# Creative Commons, PO Box 1866, Mountain View, CA 94042, USA.
#
# CIF created using the CSD Python API on 29 September 2022
# The structure has been converted into the P1 space group
# The structure has a 3D framework
# The original CSD entry ZEHNUZ is in the cubic crystal system
# The framework has been calculated to contain at least 10.0% void space
# The void calculation uses a probe of radius 1.32A, grid spacing 0.4
#
###############################################################################

data_ZEHNUZ
_chemical_formula_moiety         '(C36 Co7 O36)n'
_symmetry_cell_setting           triclinic
_symmetry_space_group_name_H-M   'P 1'
_symmetry_Int_Tables_number      1
_space_group_name_Hall           'P 1'
loop_
_symmetry_equiv_pos_site_id
_symmetry_equiv_pos_as_xyz
1 x,y,z
_cell_length_a                   10.6991
_cell_length_b                   10.6991
_cell_length_c                   10.6991
_cell_angle_alpha                90
_cell_angle_beta                 90
_cell_angle_gamma                90
_cell_volume                     1224.73
loop_
_atom_site_label
_atom_site_type_symbol
_atom_site_fract_x
_atom_site_fract_y
_atom_site_fract_z
_atom_site_U_iso_or_equiv
_atom_site_thermal_displace_type
Co1 Co 0.31946 0.31946 0.31946 0.0000 Uiso
O1 O 0.279279 0.126365 0.347121 0.0000 Uiso
O2 O 0.500 0.266759 0.380058 0.0000 Uiso
C1 C 0.372174 0.065839 0.371638 0.0000 Uiso
C2 C 0.500 0.130004 0.364559 0.0000 Uiso
O5 O 0.720721 0.126365 0.347121 0.0000 Uiso
C5 C 0.627826 0.065839 0.371638 0.0000 Uiso
O7 O 0.347121 0.279279 0.126365 0.0000 Uiso
O8 O 0.380058 0.500 0.266759 0.0000 Uiso
C7 C 0.371638 0.372174 0.065839 0.0000 Uiso
C8 C 0.364559 0.500 0.130004 0.0000 Uiso
O11 O 0.347121 0.720721 0.126365 0.0000 Uiso
C11 C 0.371638 0.627826 0.065839 0.0000 Uiso
Co3 Co 0.68054 0.31946 0.31946 0.0000 Uiso
Co7 Co 0.31946 0.68054 0.31946 0.0000 Uiso
O13 O 0.126365 0.347121 0.279279 0.0000 Uiso
O14 O 0.652879 0.279279 0.126365 0.0000 Uiso
O17 O 0.873635 0.347121 0.279279 0.0000 Uiso
O19 O 0.619942 0.500 0.266759 0.0000 Uiso
O20 O 0.266759 0.380058 0.500 0.0000 Uiso
O21 O 0.733241 0.380058 0.500 0.0000 Uiso
O9 O 0.347121 0.279279 0.873635 0.0000 Uiso
O10 O 0.380058 0.500 0.733241 0.0000 Uiso
C9 C 0.371638 0.372174 0.934161 0.0000 Uiso
C10 C 0.364559 0.500 0.869996 0.0000 Uiso
O12 O 0.347121 0.720721 0.873635 0.0000 Uiso
C12 C 0.371638 0.627826 0.934161 0.0000 Uiso
Co5 Co 0.31946 0.68054 0.68054 0.0000 Uiso
Co6 Co 0.31946 0.31946 0.68054 0.0000 Uiso
O3 O 0.279279 0.873635 0.347121 0.0000 Uiso
O4 O 0.500 0.733241 0.380058 0.0000 Uiso
C3 C 0.372174 0.934161 0.371638 0.0000 Uiso
C4 C 0.500 0.869996 0.364559 0.0000 Uiso
O6 O 0.720721 0.873635 0.347121 0.0000 Uiso
C6 C 0.627826 0.934161 0.371638 0.0000 Uiso
Co4 Co 0.68054 0.68054 0.31946 0.0000 Uiso
O16 O 0.126365 0.652879 0.279279 0.0000 Uiso
O22 O 0.266759 0.619942 0.500 0.0000 Uiso
O7_2 O 0.652879 0.720721 0.126365 0.0000 Uiso
C7_2 C 0.628362 0.627826 0.065839 0.0000 Uiso
C8_2 C 0.635441 0.500 0.130004 0.0000 Uiso
C11_2 C 0.628362 0.372174 0.065839 0.0000 Uiso
O13_2 O 0.873635 0.652879 0.279279 0.0000 Uiso
O20_2 O 0.733241 0.619942 0.500 0.0000 Uiso
O9_2 O 0.652879 0.720721 0.873635 0.0000 Uiso
O10_2 O 0.619942 0.500 0.733241 0.0000 Uiso
C9_2 C 0.628362 0.627826 0.934161 0.0000 Uiso
C10_2 C 0.635441 0.500 0.869996 0.0000 Uiso
O12_2 O 0.652879 0.279279 0.873635 0.0000 Uiso
C12_2 C 0.628362 0.372174 0.934161 0.0000 Uiso
Co5_2 Co 0.68054 0.31946 0.68054 0.0000 Uiso
Co6_2 Co 0.68054 0.68054 0.68054 0.0000 Uiso
O1_2 O 0.720721 0.126365 0.652879 0.0000 Uiso
O2_2 O 0.500 0.266759 0.619942 0.0000 Uiso
C1_2 C 0.627826 0.065839 0.628362 0.0000 Uiso
C2_2 C 0.500 0.130004 0.635441 0.0000 Uiso
O5_2 O 0.279279 0.126365 0.652879 0.0000 Uiso
C5_2 C 0.372174 0.065839 0.628362 0.0000 Uiso
O13_3 O 0.873635 0.347121 0.720721 0.0000 Uiso
O17_2 O 0.126365 0.347121 0.720721 0.0000 Uiso
O3_2 O 0.720721 0.873635 0.652879 0.0000 Uiso
O4_2 O 0.500 0.733241 0.619942 0.0000 Uiso
C3_2 C 0.627826 0.934161 0.628362 0.0000 Uiso
C4_2 C 0.500 0.869996 0.635441 0.0000 Uiso
O6_2 O 0.279279 0.873635 0.652879 0.0000 Uiso
C6_2 C 0.372174 0.934161 0.628362 0.0000 Uiso
O16_2 O 0.873635 0.652879 0.720721 0.0000 Uiso
O13_4 O 0.126365 0.652879 0.720721 0.0000 Uiso
C7_3 C 0.065839 0.371638 0.372174 0.0000 Uiso
C8_3 C 0.130004 0.364559 0.500 0.0000 Uiso
C11_3 C 0.065839 0.371638 0.627826 0.0000 Uiso
C9_3 C 0.934161 0.371638 0.372174 0.0000 Uiso
C10_3 C 0.869996 0.364559 0.500 0.0000 Uiso
C12_3 C 0.934161 0.371638 0.627826 0.0000 Uiso
C7_4 C 0.065839 0.628362 0.627826 0.0000 Uiso
C8_4 C 0.130004 0.635441 0.500 0.0000 Uiso
C11_4 C 0.065839 0.628362 0.372174 0.0000 Uiso
C9_4 C 0.934161 0.628362 0.627826 0.0000 Uiso
C10_4 C 0.869996 0.635441 0.500 0.0000 Uiso
C12_4 C 0.934161 0.628362 0.372174 0.0000 Uiso
loop_
_geom_bond_atom_site_label_1
_geom_bond_atom_site_label_2
_geom_bond_site_symmetry_1
_geom_bond_site_symmetry_2
Co1 O1 1_555 1_555
O1 C1 1_555 1_555
O2 Co1 1_555 1_555
C1 C2 1_555 1_555
C2 O2 1_555 1_555
O5 C5 1_555 1_555
C5 C2 1_555 1_555
O7 Co1 1_555 1_555
O8 Co1 1_555 1_555
C7 O7 1_555 1_555
C8 O8 1_555 1_555
O11 C11 1_555 1_555
C11 C8 1_555 1_555
Co3 O2 1_555 1_555
Co7 O8 1_555 1_555
O13 Co1 1_555 1_555
O14 Co3 1_555 1_555
O17 Co3 1_555 1_555
O19 Co3 1_555 1_555
O20 Co1 1_555 1_555
O21 Co3 1_555 1_555
O5 Co3 1_555 1_555
C7 C8 1_555 1_555
O11 Co7 1_555 1_555
O9 C9 1_555 1_555
O10 C10 1_555 1_555
C10 C9 1_555 1_555
O12 C12 1_555 1_555
C12 C10 1_555 1_555
Co5 O10 1_555 1_555
Co6 O9 1_555 1_555
O10 Co6 1_555 1_555
O12 Co5 1_555 1_555
O3 C3 1_555 1_555
O4 C4 1_555 1_555
C4 C3 1_555 1_555
O6 C6 1_555 1_555
C6 C4 1_555 1_555
Co7 O3 1_555 1_555
Co4 O4 1_555 1_555
O16 Co7 1_555 1_555
O22 Co7 1_555 1_555
O4 Co7 1_555 1_555
O6 Co4 1_555 1_555
O7_2 Co4 1_555 1_555
O19 Co4 1_555 1_555
C7_2 O7_2 1_555 1_555
C8_2 O19 1_555 1_555
O14 C11_2 1_555 1_555
C11_2 C8_2 1_555 1_555
O13_2 Co4 1_555 1_555
O20_2 Co4 1_555 1_555
C7_2 C8_2 1_555 1_555
O9_2 C9_2 1_555 1_555
O10_2 C10_2 1_555 1_555
C10_2 C9_2 1_555 1_555
O12_2 C12_2 1_555 1_555
C12_2 C10_2 1_555 1_555
Co5_2 O10_2 1_555 1_555
Co6_2 O9_2 1_555 1_555
O10_2 Co6_2 1_555 1_555
O12_2 Co5_2 1_555 1_555
Co5_2 O1_2 1_555 1_555
O1_2 C1_2 1_555 1_555
O2_2 Co5_2 1_555 1_555
C1_2 C2_2 1_555 1_555
C2_2 O2_2 1_555 1_555
O5_2 C5_2 1_555 1_555
C5_2 C2_2 1_555 1_555
Co6 O2_2 1_555 1_555
O13_3 Co5_2 1_555 1_555
O17_2 Co6 1_555 1_555
O21 Co5_2 1_555 1_555
O20 Co6 1_555 1_555
O5_2 Co6 1_555 1_555
O3_2 C3_2 1_555 1_555
O4_2 C4_2 1_555 1_555
C4_2 C3_2 1_555 1_555
O6_2 C6_2 1_555 1_555
C6_2 C4_2 1_555 1_555
Co6_2 O3_2 1_555 1_555
Co5 O4_2 1_555 1_555
O16_2 Co6_2 1_555 1_555
O20_2 Co6_2 1_555 1_555
O4_2 Co6_2 1_555 1_555
O6_2 Co5 1_555 1_555
O13_4 Co5 1_555 1_555
O22 Co5 1_555 1_555
C7_3 O13 1_555 1_555
C8_3 O20 1_555 1_555
O17_2 C11_3 1_555 1_555
C11_3 C8_3 1_555 1_555
C7_3 C8_3 1_555 1_555
O17 C9_3 1_555 1_555
O21 C10_3 1_555 1_555
C10_3 C9_3 1_555 1_555
O13_3 C12_3 1_555 1_555
C12_3 C10_3 1_555 1_555
C7_4 O13_4 1_555 1_555
C8_4 O22 1_555 1_555
O16 C11_4 1_555 1_555
C11_4 C8_4 1_555 1_555
C7_4 C8_4 1_555 1_555
O16_2 C9_4 1_555 1_555
O20_2 C10_4 1_555 1_555
C10_4 C9_4 1_555 1_555
O13_2 C12_4 1_555 1_555
C12_4 C10_4 1_555 1_555

#END
