
###############################################################################
#
# This file contains modified crystal structure data generated from the
# MOF subset of the Cambridge Structural Database (CSD) v543 
# hosted by the Cambridge Crystallographic Data Centre (CCDC).
#
# This work is licensed under the Creative Commons
# Attribution-NonCommercial-ShareAlike 4.0 International License.
# To view a copy of this license, visit
# http://creativecommons.org/licenses/by-nc-sa/4.0/
# or send a letter to
# Creative Commons, PO Box 1866, Mountain View, CA 94042, USA.
#
# CIF created using the CSD Python API on 29 September 2022
# The structure has been converted into the P1 space group
# The structure has a 3D framework
# The original CSD entry ZEHTIT is in the tetragonal crystal system
# The framework has been calculated to contain at least 10.0% void space
# The void calculation uses a probe of radius 1.32A, grid spacing 0.4
#
###############################################################################

data_ZEHTIT
_chemical_formula_moiety         '(C54 H38 Cu8 I4 N8 S4 W1)n'
_symmetry_cell_setting           triclinic
_symmetry_space_group_name_H-M   'P 1'
_symmetry_Int_Tables_number      1
_space_group_name_Hall           'P 1'
loop_
_symmetry_equiv_pos_site_id
_symmetry_equiv_pos_as_xyz
1 x,y,z
_cell_length_a                   9.3319(17)
_cell_length_b                   9.3319(17)
_cell_length_c                   25.048(5)
_cell_angle_alpha                90
_cell_angle_beta                 90
_cell_angle_gamma                90
_cell_volume                     2181.29
loop_
_atom_site_label
_atom_site_type_symbol
_atom_site_fract_x
_atom_site_fract_y
_atom_site_fract_z
I1 I 0.500000 0.000000 0.19349(4)
C4 C 0.1703(10) 0.0240(11) 0.3603(4)
H3 H 0.134011 0.118965 0.362165
H4 H 0.260746 0.046392 0.288287
C24 C 0.1703(10) 0.0240(11) 0.6397(4)
H17 H 0.134011 0.118965 0.637835
H18 H 0.260746 0.046392 0.711713
I2 I 0.500000 0.000000 0.80651(4)
Cu6 Cu 0.56212(12) 0.21648(11) 0.25158(4)
Cu9 Cu 0.56212(12) 0.21648(11) 0.74842(4)
W1 W 0.500000 0.500000 0.250000
I1_2 I 0.500000 1.000000 0.19349(4)
Cu1 Cu 0.43788(12) 0.78352(11) 0.25158(4)
S1 S 0.3377(2) 0.6105(2) 0.19906(8)
N1 N 0.3037(9) 0.8505(8) 0.3129(3)
C1 C 0.2804(12) 0.7552(11) 0.3524(4)
H1 H 0.317866 0.660874 0.349317
C2 C 0.2040(10) 0.7916(11) 0.3968(4)
H2 H 0.190583 0.723318 0.424485
C3 C 0.1453(9) 0.9286(9) 0.4019(3)
C5 C 0.2472(11) 0.9808(10) 0.3168(4)
C6 C 0.0684(10) 0.9662(10) 0.4516(3)
C7 C 0.1293(13) 0.9342(14) 0.500000
H5 H 0.219365 0.886868 0.500000
N4 N 0.3037(9) 0.8505(8) 0.6871(3)
C21 C 0.2804(12) 0.7552(11) 0.6476(4)
H15 H 0.317866 0.660874 0.650683
C22 C 0.2040(10) 0.7916(11) 0.6032(4)
H16 H 0.190583 0.723318 0.575515
C23 C 0.1453(9) 0.9286(9) 0.5981(3)
C25 C 0.2472(11) 0.9808(10) 0.6832(4)
C26 C 0.0684(10) 0.9662(10) 0.5484(3)
I2_2 I 0.500000 1.000000 0.80651(4)
Cu4 Cu 0.43788(12) 0.78352(11) 0.74842(4)
S4 S 0.3377(2) 0.6105(2) 0.80094(8)
W4 W 0.500000 0.500000 0.750000
Cu7 Cu 0.21648(11) 0.43788(12) 0.75158(4)
Cu11 Cu 0.78352(11) 0.56212(12) 0.24842(4)
Cu12 Cu 0.21648(11) 0.43788(12) 0.24842(4)
S5 S 0.6623(2) 0.3895(2) 0.19906(8)
S7 S 0.6105(2) 0.6623(2) 0.69906(8)
S8 S 0.6105(2) 0.6623(2) 0.30094(8)
S10 S 0.3895(2) 0.3377(2) 0.30094(8)
N2 N 0.6963(9) 0.1495(8) 0.3129(3)
C8 C 0.7196(12) 0.2448(11) 0.3524(4)
H6 H 0.682134 0.339126 0.349317
C9 C 0.7960(10) 0.2084(11) 0.3968(4)
H7 H 0.809417 0.276682 0.424485
C10 C 0.8547(9) 0.0714(9) 0.4019(3)
C12 C 0.7528(11) 0.0192(10) 0.3168(4)
C13 C 0.9316(10) 0.0338(10) 0.4516(3)
C14 C 0.8707(13) 0.0658(14) 0.500000
H10 H 0.780635 0.113132 0.500000
N3 N 0.6963(9) 0.1495(8) 0.6871(3)
C15 C 0.7196(12) 0.2448(11) 0.6476(4)
H11 H 0.682134 0.339126 0.650683
C16 C 0.7960(10) 0.2084(11) 0.6032(4)
H12 H 0.809417 0.276682 0.575515
C17 C 0.8547(9) 0.0714(9) 0.5981(3)
C19 C 0.7528(11) 0.0192(10) 0.6832(4)
C20 C 0.9316(10) 0.0338(10) 0.5484(3)
S3 S 0.6623(2) 0.3895(2) 0.80094(8)
Cu8 Cu 0.78352(11) 0.56212(12) 0.75158(4)
S6 S 0.3895(2) 0.3377(2) 0.69906(8)
C11 C 0.8297(10) 0.9760(11) 0.3603(4)
H8 H 0.865989 0.881035 0.362165
H9 H 0.739254 0.953608 0.288287
C18 C 0.8297(10) 0.9760(11) 0.6397(4)
H13 H 0.865989 0.881035 0.637835
H14 H 0.739254 0.953608 0.711713
C7_2 C 0.0658(14) 0.1293(13) 0.000000
H5_2 H 0.113132 0.219365 0.000000
N4_2 N 0.1495(8) 0.3037(9) 0.1871(3)
C21_2 C 0.2448(11) 0.2804(12) 0.1476(4)
H15_2 H 0.339126 0.317866 0.150683
C22_2 C 0.2084(11) 0.2040(10) 0.1032(4)
H16_2 H 0.276682 0.190583 0.075515
C23_2 C 0.0714(9) 0.1453(9) 0.0981(3)
C25_2 C 0.0192(10) 0.2472(11) 0.1832(4)
C26_2 C 0.0338(10) 0.0684(10) 0.0484(3)
I2_3 I 0.000000 0.500000 0.30651(4)
I1_3 I 0.000000 0.500000 0.69349(4)
N1_2 N 0.1495(8) 0.3037(9) 0.8129(3)
C1_2 C 0.2448(11) 0.2804(12) 0.8524(4)
H1_2 H 0.339126 0.317866 0.849317
C2_2 C 0.2084(11) 0.2040(10) 0.8968(4)
H2_2 H 0.276682 0.190583 0.924485
C3_2 C 0.0714(9) 0.1453(9) 0.9019(3)
C5_2 C 0.0192(10) 0.2472(11) 0.8168(4)
C6_2 C 0.0338(10) 0.0684(10) 0.9516(3)
C7_3 C 0.0658(14) 0.1293(13) 1.000000
H5_3 H 0.113132 0.219365 1.000000
C18_2 C 0.0240(11) 0.8297(10) 0.1397(4)
H13_2 H 0.118965 0.865989 0.137835
H14_2 H 0.046392 0.739254 0.211713
C11_2 C 0.0240(11) 0.8297(10) 0.8603(4)
H8_2 H 0.118965 0.865989 0.862165
H9_2 H 0.046392 0.739254 0.788287
C24_2 C 0.9760(11) 0.1703(10) 0.1397(4)
H17_2 H 0.881035 0.134011 0.137835
H18_2 H 0.953608 0.260746 0.211713
I2_4 I 1.000000 0.500000 0.30651(4)
I1_4 I 1.000000 0.500000 0.69349(4)
C4_2 C 0.9760(11) 0.1703(10) 0.8603(4)
H3_2 H 0.881035 0.134011 0.862165
H4_2 H 0.953608 0.260746 0.788287
C14_2 C 0.9342(14) 0.8707(13) 0.000000
H10_2 H 0.886868 0.780635 0.000000
N3_2 N 0.8505(8) 0.6963(9) 0.1871(3)
C15_2 C 0.7552(11) 0.7196(12) 0.1476(4)
H11_2 H 0.660874 0.682134 0.150683
C16_2 C 0.7916(11) 0.7960(10) 0.1032(4)
H12_2 H 0.723318 0.809417 0.075515
C17_2 C 0.9286(9) 0.8547(9) 0.0981(3)
C19_2 C 0.9808(10) 0.7528(11) 0.1832(4)
C20_2 C 0.9662(10) 0.9316(10) 0.0484(3)
N2_2 N 0.8505(8) 0.6963(9) 0.8129(3)
C8_2 C 0.7552(11) 0.7196(12) 0.8524(4)
H6_2 H 0.660874 0.682134 0.849317
C9_2 C 0.7916(11) 0.7960(10) 0.8968(4)
H7_2 H 0.723318 0.809417 0.924485
C10_2 C 0.9286(9) 0.8547(9) 0.9019(3)
C12_2 C 0.9808(10) 0.7528(11) 0.8168(4)
C13_2 C 0.9662(10) 0.9316(10) 0.9516(3)
C14_3 C 0.9342(14) 0.8707(13) 1.000000
H10_3 H 0.886868 0.780635 1.000000
loop_
_geom_bond_atom_site_label_1
_geom_bond_atom_site_label_2
_geom_bond_site_symmetry_1
_geom_bond_site_symmetry_2
H3 C4 1_555 1_555
H17 C24 1_555 1_555
Cu6 I1 1_555 1_555
Cu9 I2 1_555 1_555
W1 Cu1 1_555 1_555
I1_2 Cu1 1_555 1_555
Cu1 S1 1_555 1_555
S1 W1 1_555 1_555
N1 Cu1 1_555 1_555
C1 N1 1_555 1_555
H1 C1 1_555 1_555
C2 C1 1_555 1_555
H2 C2 1_555 1_555
C3 C2 1_555 1_555
C5 N1 1_555 1_555
C6 C3 1_555 1_555
C7 C6 1_555 1_555
H5 C7 1_555 1_555
N4 C21 1_555 1_555
C21 H15 1_555 1_555
C22 C21 1_555 1_555
H16 C22 1_555 1_555
C23 C22 1_555 1_555
C25 N4 1_555 1_555
C26 C7 1_555 1_555
I2_2 Cu4 1_555 1_555
Cu4 N4 1_555 1_555
S4 Cu4 1_555 1_555
W4 Cu4 1_555 1_555
Cu6 W1 1_555 1_555
Cu7 S4 1_555 1_555
Cu11 W1 1_555 1_555
Cu12 W1 1_555 1_555
S5 W1 1_555 1_555
S7 Cu4 1_555 1_555
S8 W1 1_555 1_555
S10 W1 1_555 1_555
Cu1 S8 1_555 1_555
S1 Cu12 1_555 1_555
C23 C26 1_555 1_555
S4 W4 1_555 1_555
W4 Cu7 1_555 1_555
W4 S7 1_555 1_555
Cu6 S5 1_555 1_555
Cu6 S10 1_555 1_555
Cu11 S5 1_555 1_555
Cu11 S8 1_555 1_555
Cu12 S10 1_555 1_555
N2 C8 1_555 1_555
C8 H6 1_555 1_555
C9 C8 1_555 1_555
H7 C9 1_555 1_555
C10 C9 1_555 1_555
C12 N2 1_555 1_555
C14 C13 1_555 1_555
H10 C14 1_555 1_555
N3 C15 1_555 1_555
C15 H11 1_555 1_555
C16 C15 1_555 1_555
H12 C16 1_555 1_555
C17 C16 1_555 1_555
C19 N3 1_555 1_555
C20 C14 1_555 1_555
Cu6 N2 1_555 1_555
Cu9 N3 1_555 1_555
S3 Cu9 1_555 1_555
W4 Cu9 1_555 1_555
Cu8 S3 1_555 1_555
S6 Cu9 1_555 1_555
C10 C13 1_555 1_555
C17 C20 1_555 1_555
S3 W4 1_555 1_555
W4 Cu8 1_555 1_555
W4 S6 1_555 1_555
H8 C11 1_555 1_555
H13 C18 1_555 1_555
H5_2 C7_2 1_555 1_555
N4_2 C21_2 1_555 1_555
C21_2 H15_2 1_555 1_555
C22_2 C21_2 1_555 1_555
H16_2 C22_2 1_555 1_555
C23_2 C22_2 1_555 1_555
C25_2 N4_2 1_555 1_555
C26_2 C7_2 1_555 1_555
I2_3 Cu12 1_555 1_555
Cu12 N4_2 1_555 1_555
C23_2 C26_2 1_555 1_555
I1_3 Cu7 1_555 1_555
Cu7 S6 1_555 1_555
N1_2 Cu7 1_555 1_555
C1_2 N1_2 1_555 1_555
H1_2 C1_2 1_555 1_555
C2_2 C1_2 1_555 1_555
H2_2 C2_2 1_555 1_555
C3_2 C2_2 1_555 1_555
C5_2 N1_2 1_555 1_555
C6_2 C3_2 1_555 1_555
C7_3 C6_2 1_555 1_555
H5_3 C7_3 1_555 1_555
Cu8 S7 1_555 1_555
H13_2 C18_2 1_555 1_555
H8_2 C11_2 1_555 1_555
H17_2 C24_2 1_555 1_555
Cu11 I2_4 1_555 1_555
H3_2 C4_2 1_555 1_555
Cu8 I1_4 1_555 1_555
H10_2 C14_2 1_555 1_555
N3_2 C15_2 1_555 1_555
C15_2 H11_2 1_555 1_555
C16_2 C15_2 1_555 1_555
H12_2 C16_2 1_555 1_555
C17_2 C16_2 1_555 1_555
C19_2 N3_2 1_555 1_555
C20_2 C14_2 1_555 1_555
Cu11 N3_2 1_555 1_555
C17_2 C20_2 1_555 1_555
N2_2 C8_2 1_555 1_555
C8_2 H6_2 1_555 1_555
C9_2 C8_2 1_555 1_555
H7_2 C9_2 1_555 1_555
C10_2 C9_2 1_555 1_555
C12_2 N2_2 1_555 1_555
C14_3 C13_2 1_555 1_555
H10_3 C14_3 1_555 1_555
Cu8 N2_2 1_555 1_555
C10_2 C13_2 1_555 1_555

#END
