
###############################################################################
#
# This file contains modified crystal structure data generated from the
# MOF subset of the Cambridge Structural Database (CSD) v543 
# hosted by the Cambridge Crystallographic Data Centre (CCDC).
#
# This work is licensed under the Creative Commons
# Attribution-NonCommercial-ShareAlike 4.0 International License.
# To view a copy of this license, visit
# http://creativecommons.org/licenses/by-nc-sa/4.0/
# or send a letter to
# Creative Commons, PO Box 1866, Mountain View, CA 94042, USA.
#
# CIF created using the CSD Python API on 29 September 2022
# The structure has been converted into the P1 space group
# The structure has a 3D framework
# The original CSD entry ZEJFAY is in the monoclinic crystal system
# The framework has been calculated to contain at least 10.0% void space
# The void calculation uses a probe of radius 1.32A, grid spacing 0.4
# H atom positions have been added when not included in the experimental data
# Generated hydrogen atom positions removed from atoms on special positions
#
###############################################################################

data_ZEJFAY
_chemical_formula_moiety         '(C88 H76 N4 O44 Zn6)n'
_symmetry_cell_setting           triclinic
_symmetry_space_group_name_H-M   'P 1'
_symmetry_Int_Tables_number      1
_space_group_name_Hall           'P 1'
loop_
_symmetry_equiv_pos_site_id
_symmetry_equiv_pos_as_xyz
1 x,y,z
_cell_length_a                   13.166(15)
_cell_length_b                   13.678(15)
_cell_length_c                   27.32(3)
_cell_angle_alpha                90
_cell_angle_beta                 109.44(5)
_cell_angle_gamma                90
_cell_volume                     4639.43
loop_
_atom_site_label
_atom_site_type_symbol
_atom_site_fract_x
_atom_site_fract_y
_atom_site_fract_z
C1 C 0.3555(6) 0.5206(6) 0.7641(3)
C2 C 0.3365(5) 0.5878(5) 0.7193(3)
C3 C 0.2400(5) 0.5816(5) 0.6770(3)
H1 H 0.1898 0.5338 0.6770
C4 C 0.2193(6) 0.6436(5) 0.6369(3)
C5 C 0.2942(6) 0.7112(5) 0.6368(3)
H2 H 0.2802 0.7539 0.6088
C6 C 0.3906(5) 0.7188(5) 0.6770(3)
C7 C 0.4095(5) 0.6568(5) 0.7179(3)
H3 H 0.4737 0.6617 0.7455
C8 C 0.4694(6) 0.7971(6) 0.6740(3)
C9 C 0.1159(5) 0.6346(5) 0.5911(3)
C10 C 0.1004(5) 0.5570(5) 0.5596(3)
H4 H 0.1545 0.5101 0.5665
C11 C 0.0068(5) 0.5426(5) 0.5167(2)
C14 C 0.0384(5) 0.7052(5) 0.5831(3)
N1 N 0.0548(5) 0.7872(5) 0.6143(3)
H9 H 0.1147 0.7946 0.6392
H10 H 0.0052 0.8308 0.6087
O1 O 0.4386(4) 0.5388(4) 0.80249(19)
O2 O 0.2894(4) 0.4561(5) 0.7610(2)
O3 O 0.5612(4) 0.7896(4) 0.7093(2)
O4 O 0.4423(5) 0.8551(4) 0.6389(2)
O9 O 0.1097(6) 0.3339(7) 0.7528(4)
O10 O 0.2415(7) 0.2695(7) 0.7070(3)
O11 O 0.2700(8) 0.1645(6) 0.7799(4)
Zn1 Zn 0.48502(6) 0.47002(6) 0.86625(3)
Zn2 Zn 0.28759(7) 0.32260(8) 0.78167(4)
C34 C 0.0711(5) 0.3884(5) 0.4902(3)
H15 H 0.1355 0.3958 0.5176
C35 C 0.0586(5) 0.3080(5) 0.4586(3)
C37 C 0.1503(5) 0.2386(5) 0.4663(3)
C38 C 0.2019(6) 0.1938(5) 0.5136(3)
H16 H 0.1775 0.2066 0.5412
C39 C 0.2872(5) 0.1317(5) 0.5214(3)
C40 C 0.3224(5) 0.1138(5) 0.4820(3)
H17 H 0.3807 0.0721 0.4869
C41 C 0.2732(5) 0.1567(5) 0.4333(3)
C42 C 0.1879(5) 0.2183(5) 0.4261(3)
H18 H 0.1549 0.2467 0.3938
C43 C 0.3417(7) 0.0886(6) 0.5731(3)
C44 C 0.3145(6) 0.1349(6) 0.3902(3)
O16 O 0.4265(4) 0.0432(4) 0.5771(2)
O17 O 0.3046(6) 0.0969(6) 0.6072(2)
O18 O 0.3772(4) 0.0656(4) 0.3953(2)
O19 O 0.2769(5) 0.1861(4) 0.3500(2)
O23 O 0.4388(4) 0.2896(4) 0.7907(2)
O25 O 0.5577(5) 0.3551(4) 0.8611(2)
O28 O 0.5735(4) 0.5432(4) 0.9229(2)
O29 O 0.3772(4) 0.4344(4) 0.8953(2)
O31 O 0.2769(5) 0.3139(4) 0.8500(2)
Zn7 Zn 0.51498(6) 0.97002(6) 0.63375(3)
Zn10 Zn 0.48502(6) 0.02998(6) 0.36625(3)
Zn12 Zn 0.71241(7) 0.82260(8) 0.71833(4)
Zn14 Zn 0.28759(7) 0.17740(8) 0.28167(4)
C12 C 0.9289(5) 0.6116(5) 0.5098(3)
H5 H 0.8645 0.6042 0.4824
C13 C 0.9414(5) 0.6920(5) 0.5414(3)
C15 C 0.8497(5) 0.7614(5) 0.5337(3)
C16 C 0.7981(6) 0.8062(5) 0.4864(3)
H6 H 0.8225 0.7934 0.4588
C17 C 0.7128(5) 0.8683(5) 0.4786(3)
C18 C 0.6776(5) 0.8862(5) 0.5180(3)
H7 H 0.6193 0.9279 0.5131
C19 C 0.7268(5) 0.8433(5) 0.5667(3)
C20 C 0.8121(5) 0.7817(5) 0.5739(3)
H8 H 0.8451 0.7533 0.6062
C21 C 0.6583(7) 0.9114(6) 0.4269(3)
C22 C 0.6855(6) 0.8651(6) 0.6098(3)
O5 O 0.5735(4) 0.9568(4) 0.4229(2)
O6 O 0.6954(6) 0.9031(6) 0.3928(2)
O7 O 0.6228(4) 0.9344(4) 0.6047(2)
O8 O 0.7231(5) 0.8139(4) 0.6500(2)
C23 C 0.6445(6) 0.4794(6) 0.2359(3)
C24 C 0.6635(5) 0.4122(5) 0.2807(3)
C25 C 0.7600(5) 0.4184(5) 0.3230(3)
H11 H 0.8102 0.4662 0.3230
C26 C 0.7807(6) 0.3564(5) 0.3631(3)
C27 C 0.7058(6) 0.2888(5) 0.3632(3)
H12 H 0.7198 0.2461 0.3912
C28 C 0.6094(5) 0.2812(5) 0.3230(3)
C29 C 0.5905(5) 0.3432(5) 0.2821(3)
H13 H 0.5263 0.3383 0.2545
C30 C 0.5306(6) 0.2029(6) 0.3260(3)
C31 C 0.8841(5) 0.3654(5) 0.4089(3)
C32 C 0.8996(5) 0.4430(5) 0.4404(3)
H14 H 0.8455 0.4899 0.4335
C33 C 0.9932(5) 0.4574(5) 0.4833(2)
C36 C 0.9616(5) 0.2948(5) 0.4169(3)
N2 N 0.9452(5) 0.2128(5) 0.3857(3)
H19 H 0.8853 0.2054 0.3608
H20 H 0.9948 0.1692 0.3913
O12 O 0.5614(4) 0.4612(4) 0.19751(19)
O13 O 0.7106(4) 0.5439(5) 0.2390(2)
O14 O 0.4388(4) 0.2104(4) 0.2907(2)
O15 O 0.5577(5) 0.1449(4) 0.3611(2)
O20 O 0.8903(6) 0.6661(7) 0.2472(4)
O21 O 0.7585(7) 0.7305(7) 0.2930(3)
O22 O 0.7300(8) 0.8355(6) 0.2201(4)
Zn3 Zn 0.51498(6) 0.52998(6) 0.13375(3)
Zn4 Zn 0.71241(7) 0.67740(8) 0.21833(4)
O24 O 0.5612(4) 0.7104(4) 0.2093(2)
O26 O 0.4423(5) 0.6449(4) 0.1389(2)
O27 O 0.4265(4) 0.4568(4) 0.0771(2)
O30 O 0.6228(4) 0.5656(4) 0.1047(2)
O32 O 0.7231(5) 0.6861(4) 0.1500(2)
H5_2 H 0.1355 0.1042 0.0176
C16_2 C 0.2019(6) 0.3062(5) 0.0136(3)
H6_2 H 0.1775 0.2934 0.0412
C17_2 C 0.2872(5) 0.3683(5) 0.0214(3)
C21_2 C 0.3417(7) 0.4114(6) 0.0731(3)
O6_2 O 0.3046(6) 0.4031(6) 0.1072(2)
O13_2 O 0.2894(4) 0.0439(5) 0.2610(2)
O20_2 O 0.1097(6) 0.1661(7) 0.2528(4)
O21_2 O 0.2415(7) 0.2305(7) 0.2070(3)
O22_2 O 0.2700(8) 0.3355(6) 0.2799(4)
C12_2 C 0.0711(5) 0.1116(5) 0.9902(3)
C13_2 C 0.0586(5) 0.1920(5) 0.9586(3)
C15_2 C 0.1503(5) 0.2614(5) 0.9663(3)
C18_2 C 0.3224(5) 0.3862(5) 0.9820(3)
H7_2 H 0.3807 0.4279 0.9869
C19_2 C 0.2732(5) 0.3433(5) 0.9333(3)
C20_2 C 0.1879(5) 0.2817(5) 0.9261(3)
H8_2 H 0.1549 0.2533 0.8938
C22_2 C 0.3145(6) 0.3651(6) 0.8902(3)
C23_2 C 0.3555(6) 0.9794(6) 0.2641(3)
C24_2 C 0.3365(5) 0.9122(5) 0.2193(3)
C25_2 C 0.2400(5) 0.9184(5) 0.1770(3)
H11_2 H 0.1898 0.9662 0.1770
C26_2 C 0.2193(6) 0.8564(5) 0.1369(3)
C27_2 C 0.2942(6) 0.7888(5) 0.1368(3)
H12_2 H 0.2802 0.7461 0.1088
C28_2 C 0.3906(5) 0.7812(5) 0.1770(3)
C29_2 C 0.4095(5) 0.8432(5) 0.2179(3)
H13_2 H 0.4737 0.8383 0.2455
C30_2 C 0.4694(6) 0.7029(6) 0.1740(3)
C31_2 C 0.1159(5) 0.8654(5) 0.0911(3)
C32_2 C 0.1004(5) 0.9430(5) 0.0596(3)
H14_2 H 0.1545 0.9899 0.0665
C33_2 C 0.0068(5) 0.9574(5) 0.0167(2)
C36_2 C 0.0384(5) 0.7948(5) 0.0831(3)
N2_2 N 0.0548(5) 0.7128(5) 0.1143(3)
H19_2 H 0.1147 0.7054 0.1392
H20_2 H 0.0052 0.6692 0.1087
O12_2 O 0.4386(4) 0.9612(4) 0.30249(19)
C1_2 C 0.6445(6) 0.0206(6) 0.7359(3)
C2_2 C 0.6635(5) 0.0878(5) 0.7807(3)
C3_2 C 0.7600(5) 0.0816(5) 0.8230(3)
H1_2 H 0.8102 0.0338 0.8230
C4_2 C 0.7807(6) 0.1436(5) 0.8631(3)
C5_2 C 0.7058(6) 0.2112(5) 0.8632(3)
H2_2 H 0.7198 0.2539 0.8912
C6_2 C 0.6094(5) 0.2188(5) 0.8230(3)
C7_2 C 0.5905(5) 0.1568(5) 0.7821(3)
H3_2 H 0.5263 0.1617 0.7545
C8_2 C 0.5306(6) 0.2971(6) 0.8260(3)
C9_2 C 0.8841(5) 0.1346(5) 0.9089(3)
C10_2 C 0.8996(5) 0.0570(5) 0.9404(3)
H4_2 H 0.8455 0.0101 0.9335
C11_2 C 0.9932(5) 0.0426(5) 0.9833(2)
C14_2 C 0.9616(5) 0.2052(5) 0.9169(3)
N1_2 N 0.9452(5) 0.2872(5) 0.8857(3)
H9_2 H 0.8853 0.2946 0.8608
H10_2 H 0.9948 0.3308 0.8913
O1_2 O 0.5614(4) 0.0388(4) 0.69751(19)
C34_2 C 0.9289(5) 0.8884(5) 0.0098(3)
C35_2 C 0.9414(5) 0.8080(5) 0.0414(3)
C37_2 C 0.8497(5) 0.7386(5) 0.0337(3)
C40_2 C 0.6776(5) 0.6138(5) 0.0180(3)
H17_2 H 0.6193 0.5721 0.0131
C41_2 C 0.7268(5) 0.6567(5) 0.0667(3)
C42_2 C 0.8121(5) 0.7183(5) 0.0739(3)
H18_2 H 0.8451 0.7467 0.1062
C44_2 C 0.6855(6) 0.6349(6) 0.1098(3)
O2_2 O 0.7106(4) 0.9561(5) 0.7390(2)
O9_2 O 0.8903(6) 0.8339(7) 0.7472(4)
O10_2 O 0.7585(7) 0.7695(7) 0.7930(3)
O11_2 O 0.7300(8) 0.6645(6) 0.7201(4)
H15_2 H 0.8645 0.8958 0.9824
C38_2 C 0.7981(6) 0.6938(5) 0.9864(3)
H16_2 H 0.8225 0.7066 0.9588
C39_2 C 0.7128(5) 0.6317(5) 0.9786(3)
C43_2 C 0.6583(7) 0.5886(6) 0.9269(3)
O17_2 O 0.6954(6) 0.5969(6) 0.8928(2)
loop_
_geom_bond_atom_site_label_1
_geom_bond_atom_site_label_2
_geom_bond_site_symmetry_1
_geom_bond_site_symmetry_2
C1 C2 1_555 1_555
C2 C3 1_555 1_555
C3 H1 1_555 1_555
C4 C3 1_555 1_555
C5 C4 1_555 1_555
H2 C5 1_555 1_555
C6 C5 1_555 1_555
C7 C2 1_555 1_555
H3 C7 1_555 1_555
C8 C6 1_555 1_555
C9 C4 1_555 1_555
C10 C9 1_555 1_555
H4 C10 1_555 1_555
C11 C10 1_555 1_555
C14 C9 1_555 1_555
N1 C14 1_555 1_555
H9 N1 1_555 1_555
H10 N1 1_555 1_555
O1 C1 1_555 1_555
O2 C1 1_555 1_555
O3 C8 1_555 1_555
O4 C8 1_555 1_555
O9 Zn2 1_555 1_555
O10 Zn2 1_555 1_555
O11 Zn2 1_555 1_555
Zn1 O1 1_555 1_555
Zn2 O2 1_555 1_555
H15 C34 1_555 1_555
C35 C34 1_555 1_555
C37 C35 1_555 1_555
C38 C37 1_555 1_555
H16 C38 1_555 1_555
C39 C38 1_555 1_555
C40 C39 1_555 1_555
H17 C40 1_555 1_555
C41 C40 1_555 1_555
C42 C37 1_555 1_555
H18 C42 1_555 1_555
C43 C39 1_555 1_555
C44 C41 1_555 1_555
O16 C43 1_555 1_555
O17 C43 1_555 1_555
O18 C44 1_555 1_555
O19 C44 1_555 1_555
O23 Zn2 1_555 1_555
O25 Zn1 1_555 1_555
O28 Zn1 1_555 1_555
O29 Zn1 1_555 1_555
O31 Zn2 1_555 1_555
Zn7 O4 1_555 1_555
Zn10 O18 1_555 1_555
Zn12 O3 1_555 1_555
Zn14 O19 1_555 1_555
C6 C7 1_555 1_555
C41 C42 1_555 1_555
H5 C12 1_555 1_555
C13 C12 1_555 1_555
C15 C13 1_555 1_555
C16 C15 1_555 1_555
H6 C16 1_555 1_555
C17 C16 1_555 1_555
C18 C17 1_555 1_555
H7 C18 1_555 1_555
C19 C18 1_555 1_555
C20 C15 1_555 1_555
H8 C20 1_555 1_555
C21 C17 1_555 1_555
C22 C19 1_555 1_555
O5 C21 1_555 1_555
O6 C21 1_555 1_555
O7 C22 1_555 1_555
O8 C22 1_555 1_555
C23 C24 1_555 1_555
C24 C25 1_555 1_555
C25 H11 1_555 1_555
C26 C25 1_555 1_555
C27 C26 1_555 1_555
H12 C27 1_555 1_555
C28 C27 1_555 1_555
C29 C24 1_555 1_555
H13 C29 1_555 1_555
C30 C28 1_555 1_555
C31 C26 1_555 1_555
C32 C31 1_555 1_555
H14 C32 1_555 1_555
C36 C31 1_555 1_555
N2 C36 1_555 1_555
H19 N2 1_555 1_555
H20 N2 1_555 1_555
O12 C23 1_555 1_555
O13 C23 1_555 1_555
O14 C30 1_555 1_555
O15 C30 1_555 1_555
O20 Zn4 1_555 1_555
O21 Zn4 1_555 1_555
O22 Zn4 1_555 1_555
Zn3 O12 1_555 1_555
Zn4 O13 1_555 1_555
O24 Zn4 1_555 1_555
O26 Zn3 1_555 1_555
O27 Zn3 1_555 1_555
O30 Zn3 1_555 1_555
O32 Zn4 1_555 1_555
Zn7 O7 1_555 1_555
Zn10 O15 1_555 1_555
Zn12 O8 1_555 1_555
Zn14 O14 1_555 1_555
C19 C20 1_555 1_555
C28 C29 1_555 1_555
C32 C33 1_555 1_555
H6_2 C16_2 1_555 1_555
C17_2 C16_2 1_555 1_555
C21_2 C17_2 1_555 1_555
O27 C21_2 1_555 1_555
O6_2 C21_2 1_555 1_555
O20_2 Zn14 1_555 1_555
O21_2 Zn14 1_555 1_555
O22_2 Zn14 1_555 1_555
Zn14 O13_2 1_555 1_555
C13_2 C12_2 1_555 1_555
C15_2 C13_2 1_555 1_555
H7_2 C18_2 1_555 1_555
C19_2 C18_2 1_555 1_555
C20_2 C15_2 1_555 1_555
H8_2 C20_2 1_555 1_555
C22_2 C19_2 1_555 1_555
O29 C22_2 1_555 1_555
O31 C22_2 1_555 1_555
C19_2 C20_2 1_555 1_555
C23_2 C24_2 1_555 1_555
C24_2 C25_2 1_555 1_555
C25_2 H11_2 1_555 1_555
C26_2 C25_2 1_555 1_555
C27_2 C26_2 1_555 1_555
H12_2 C27_2 1_555 1_555
C28_2 C27_2 1_555 1_555
C29_2 C24_2 1_555 1_555
H13_2 C29_2 1_555 1_555
C30_2 C28_2 1_555 1_555
C31_2 C26_2 1_555 1_555
C32_2 C31_2 1_555 1_555
H14_2 C32_2 1_555 1_555
C36_2 C31_2 1_555 1_555
N2_2 C36_2 1_555 1_555
H19_2 N2_2 1_555 1_555
H20_2 N2_2 1_555 1_555
O12_2 C23_2 1_555 1_555
O24 C30_2 1_555 1_555
O26 C30_2 1_555 1_555
C28_2 C29_2 1_555 1_555
C32_2 C33_2 1_555 1_555
C1_2 C2_2 1_555 1_555
C2_2 C3_2 1_555 1_555
C3_2 H1_2 1_555 1_555
C4_2 C3_2 1_555 1_555
C5_2 C4_2 1_555 1_555
H2_2 C5_2 1_555 1_555
C6_2 C5_2 1_555 1_555
C7_2 C2_2 1_555 1_555
H3_2 C7_2 1_555 1_555
C8_2 C6_2 1_555 1_555
C9_2 C4_2 1_555 1_555
C10_2 C9_2 1_555 1_555
H4_2 C10_2 1_555 1_555
C11_2 C10_2 1_555 1_555
C14_2 C9_2 1_555 1_555
N1_2 C14_2 1_555 1_555
H9_2 N1_2 1_555 1_555
H10_2 N1_2 1_555 1_555
O1_2 C1_2 1_555 1_555
O23 C8_2 1_555 1_555
O25 C8_2 1_555 1_555
C6_2 C7_2 1_555 1_555
C35_2 C34_2 1_555 1_555
C37_2 C35_2 1_555 1_555
H17_2 C40_2 1_555 1_555
C41_2 C40_2 1_555 1_555
C42_2 C37_2 1_555 1_555
H18_2 C42_2 1_555 1_555
C44_2 C41_2 1_555 1_555
O30 C44_2 1_555 1_555
O32 C44_2 1_555 1_555
C41_2 C42_2 1_555 1_555
O9_2 Zn12 1_555 1_555
O10_2 Zn12 1_555 1_555
O11_2 Zn12 1_555 1_555
Zn12 O2_2 1_555 1_555
H16_2 C38_2 1_555 1_555
C39_2 C38_2 1_555 1_555
C43_2 C39_2 1_555 1_555
O28 C43_2 1_555 1_555
O17_2 C43_2 1_555 1_555

#END
