
###############################################################################
#
# This file contains modified crystal structure data generated from the
# MOF subset of the Cambridge Structural Database (CSD) v543 
# hosted by the Cambridge Crystallographic Data Centre (CCDC).
#
# This work is licensed under the Creative Commons
# Attribution-NonCommercial-ShareAlike 4.0 International License.
# To view a copy of this license, visit
# http://creativecommons.org/licenses/by-nc-sa/4.0/
# or send a letter to
# Creative Commons, PO Box 1866, Mountain View, CA 94042, USA.
#
# CIF created using the CSD Python API on 29 September 2022
# The structure has been converted into the P1 space group
# The structure has a 3D framework
# The original CSD entry ZEJXIZ is in the monoclinic crystal system
# The framework has been calculated to contain at least 10.0% void space
# The void calculation uses a probe of radius 1.32A, grid spacing 0.4
#
###############################################################################

data_ZEJXIZ
_chemical_formula_moiety         '(C96 H88 Co5 N16 O4 S4)n'
_symmetry_cell_setting           triclinic
_symmetry_space_group_name_H-M   'P 1'
_symmetry_Int_Tables_number      1
_space_group_name_Hall           'P 1'
loop_
_symmetry_equiv_pos_site_id
_symmetry_equiv_pos_as_xyz
1 x,y,z
_cell_length_a                   15.3929(3)
_cell_length_b                   14.4011(4)
_cell_length_c                   16.7954(4)
_cell_angle_alpha                90
_cell_angle_beta                 112.716(2)
_cell_angle_gamma                90
_cell_volume                     3434.31
loop_
_atom_site_label
_atom_site_type_symbol
_atom_site_fract_x
_atom_site_fract_y
_atom_site_fract_z
Co4 Co -0.000000 0.000000 0.500000
Co4_2 Co -0.000000 1.000000 0.500000
C24 C 0.5058(8) 0.0017(7) 0.3415(7)
H20 H 0.507241 0.010165 0.285292
H21 H 0.525063 0.058089 0.374042
H31 H 0.116425 0.045590 0.383504
Co2 Co 0.500000 0.500000 0.000000
S1 S 0.59067(10) 0.64048(9) 0.27431(7)
O1 O 0.5359(2) 0.6887(2) 0.5013(2)
N1 N 0.8726(2) 0.0441(2) 0.5250(2)
N2 N 0.6893(2) 0.2429(2) 0.3661(2)
N3 N 0.5343(2) 0.5927(2) 0.1011(2)
N4 N 0.5823(2) 0.3934(2) 0.0898(2)
C1 C 0.5198(3) 0.5948(3) 0.4997(2)
C2 C 0.8203(3) 0.1162(3) 0.4813(2)
H1 H 0.836390 0.144277 0.439059
C3 C 0.6436(3) 0.3160(3) 0.3196(2)
C4 C 0.5466(3) 0.4354(3) 0.4676(2)
C5 C 0.7435(3) 0.1510(3) 0.4957(2)
C6 C 0.5653(3) 0.5298(3) 0.4676(3)
H2 H 0.609009 0.550072 0.445704
C7 C 0.5983(3) 0.3820(3) 0.3515(3)
H3 H 0.570208 0.433999 0.318926
C8 C 0.5960(3) 0.3685(3) 0.4325(2)
C9 C 0.5587(3) 0.6139(3) 0.1728(3)
C10 C 0.6363(3) 0.3359(3) 0.0668(3)
H4 H 0.634408 0.339506 0.010846
C11 C 0.7197(3) 0.1084(3) 0.5591(3)
H5 H 0.669306 0.130000 0.571379
C12 C 0.5848(3) 0.3859(3) 0.1700(2)
H6 H 0.546147 0.424783 0.186174
C13 C 0.6425(3) 0.2916(3) 0.4797(3)
H7 H 0.641609 0.280046 0.533891
C14 C 0.6424(3) 0.3228(3) 0.2311(2)
C15 C 0.6902(3) 0.2320(3) 0.4458(3)
C16 C 0.7727(3) 0.0332(3) 0.6037(3)
H8 H 0.757405 0.002771 0.645361
C17 C 0.8479(3) 0.0041(3) 0.5855(3)
C18 C 0.6950(4) 0.2714(4) 0.1223(3)
H10 H 0.731777 0.232410 0.103984
C19 C 0.6191(3) 0.7189(3) 0.4911(3)
H11 H 0.611836 0.712258 0.431405
H12 H 0.672535 0.681776 0.526804
C20 C 0.6984(3) 0.2653(3) 0.2051(3)
H13 H 0.738260 0.222579 0.243472
C21 C 0.6352(4) 0.8197(3) 0.5179(4)
H14 H 0.638727 0.824518 0.576717
H15 H 0.696083 0.838017 0.518490
C22 C 0.5640(5) 0.8877(4) 0.4642(6)
H16 H 0.502413 0.859043 0.446591
H17 H 0.564657 0.940493 0.500292
C23 C 0.5745(7) 0.9214(10) 0.3895(7)
H18 H 0.565271 0.870207 0.349524
H19 H 0.638620 0.943283 0.405565
H22 H 0.443008 0.986082 0.335614
O2 O 0.4641(2) 0.3113(2) 0.4987(2)
N5 N 0.1274(2) 0.9559(2) 0.4750(2)
N6 N 0.3107(2) 0.7571(2) 0.6339(2)
N7 N 0.4177(2) 0.6066(2) 0.9102(2)
C25 C 0.4802(3) 0.4052(3) 0.5003(2)
C26 C 0.1797(3) 0.8838(3) 0.5187(2)
H23 H 0.163610 0.855723 0.560941
C27 C 0.3564(3) 0.6840(3) 0.6804(2)
C28 C 0.4534(3) 0.5646(3) 0.5324(2)
C29 C 0.2565(3) 0.8490(3) 0.5043(2)
C30 C 0.4347(3) 0.4702(3) 0.5324(3)
H24 H 0.390991 0.449928 0.554296
C31 C 0.4017(3) 0.6180(3) 0.6485(3)
H25 H 0.429792 0.566001 0.681074
C32 C 0.4040(3) 0.6315(3) 0.5675(2)
C33 C 0.3637(3) 0.6641(3) 0.9332(3)
H26 H 0.365592 0.660494 0.989154
C34 C 0.2803(3) 0.8916(3) 0.4409(3)
H27 H 0.330694 0.870000 0.428621
C35 C 0.4152(3) 0.6141(3) 0.8300(2)
H28 H 0.453853 0.575217 0.813826
C36 C 0.3575(3) 0.7084(3) 0.5203(3)
H29 H 0.358391 0.719954 0.466109
C37 C 0.3576(3) 0.6772(3) 0.7689(2)
C38 C 0.3098(3) 0.7680(3) 0.5542(3)
C39 C 0.2273(3) 0.9668(3) 0.3963(3)
H30 H 0.242595 0.997229 0.354639
C40 C 0.1521(3) 0.9959(3) 0.4145(3)
C41 C 0.3050(4) 0.7286(4) 0.8777(3)
H32 H 0.268223 0.767590 0.896016
C42 C 0.3809(3) 0.2811(3) 0.5089(3)
H33 H 0.388164 0.287742 0.568595
H34 H 0.327465 0.318224 0.473196
C43 C 0.3016(3) 0.7347(3) 0.7949(3)
H35 H 0.261740 0.777421 0.756528
C44 C 0.3648(4) 0.1803(3) 0.4821(4)
H36 H 0.361273 0.175482 0.423283
H37 H 0.303917 0.161983 0.481510
C45 C 0.4360(5) 0.1123(4) 0.5358(6)
H38 H 0.497587 0.140957 0.553409
H39 H 0.435343 0.059507 0.499708
C46 C 0.4255(7) 0.0786(10) 0.6105(7)
H40 H 0.434729 0.129793 0.650476
H41 H 0.361380 0.056717 0.594435
H44 H 0.556992 0.013918 0.664386
Co2_2 Co 0.500000 0.500000 1.000000
Co4_3 Co 1.000000 0.000000 0.500000
N10 N 0.3726(2) 0.4559(2) 0.0250(2)
S2 S 0.40933(10) 0.35952(9) 0.72569(7)
N8 N 0.4657(2) 0.4073(2) 0.8989(2)
C48 C 0.4413(3) 0.3861(3) 0.8272(3)
N9 N 0.6274(2) 0.5441(2) 0.9750(2)
H9 H 0.883575 0.954410 0.616496
C47 C 0.4942(8) 0.9983(7) 0.6585(7)
H42 H 0.492759 0.989835 0.714708
H43 H 0.474937 0.941911 0.625958
Co4_4 Co 1.000000 1.000000 0.500000
H22_2 H 0.056992 0.486082 0.164386
C34_2 C 0.2197(3) 0.3916(3) 0.0591(3)
H27_2 H 0.169306 0.370000 0.071379
H29_2 H 0.141609 0.219954 0.033891
C39_2 C 0.2727(3) 0.4668(3) 0.1037(3)
H30_2 H 0.257405 0.497229 0.145361
C40_2 C 0.3479(3) 0.4959(3) 0.0855(3)
H31_2 H 0.383575 0.545590 0.116496
N11 N 0.0823(2) 0.1066(2) 0.5898(2)
N6_2 N 0.1893(2) 0.2571(2) 0.8661(2)
C26_2 C 0.3203(3) 0.3838(3) 0.9813(2)
H23_2 H 0.336390 0.355723 0.939059
C27_2 C 0.1436(3) 0.1840(3) 0.8196(2)
C28_2 C 0.0466(3) 0.0646(3) 0.9676(2)
C29_2 C 0.2435(3) 0.3490(3) 0.9957(2)
C31_2 C 0.0983(3) 0.1180(3) 0.8515(3)
H25_2 H 0.070208 0.066001 0.818926
C32_2 C 0.0960(3) 0.1315(3) 0.9325(2)
C33_2 C 0.1363(3) 0.1641(3) 0.5668(3)
H26_2 H 0.134408 0.160494 0.510846
C35_2 C 0.0848(3) 0.1141(3) 0.6700(2)
H28_2 H 0.046147 0.075217 0.686174
C36_2 C 0.1425(3) 0.2084(3) 0.9797(3)
C37_2 C 0.1424(3) 0.1772(3) 0.7311(2)
C38_2 C 0.1902(3) 0.2680(3) 0.9458(3)
C41_2 C 0.1950(4) 0.2286(4) 0.6223(3)
H32_2 H 0.231777 0.267590 0.603984
C43_2 C 0.1984(3) 0.2347(3) 0.7051(3)
H35_2 H 0.238260 0.277421 0.743472
O2_2 O 0.0359(2) 0.8113(2) 0.0013(2)
H34_2 H 0.172535 0.818224 0.026804
C44_2 C 0.1352(4) 0.6803(3) 0.0179(4)
H36_2 H 0.138727 0.675482 0.076717
H37_2 H 0.196083 0.661983 0.018490
H39_2 H 0.064657 0.559507 0.000292
S2_2 S 0.09067(10) 0.85952(9) 0.77431(7)
N8_2 N 0.0343(2) 0.9073(2) 0.6011(2)
C48_2 C 0.0587(3) 0.8861(3) 0.6728(3)
C25_2 C 0.0198(3) 0.9052(3) 0.9997(2)
C30_2 C 0.0653(3) 0.9702(3) 0.9676(3)
H24_2 H 0.109009 0.949928 0.945704
C42_2 C 0.1191(3) 0.7811(3) 0.9911(3)
H33_2 H 0.111836 0.787742 0.931405
C45_2 C 0.0640(5) 0.6123(4) 0.9642(6)
H38_2 H 0.002413 0.640957 0.946591
C46_2 C 0.0745(7) 0.5786(10) 0.8895(7)
H40_2 H 0.065271 0.629793 0.849524
H41_2 H 0.138620 0.556717 0.905565
C47_2 C 0.0058(8) 0.4983(7) 0.8415(7)
H42_2 H 0.007241 0.489835 0.785292
H43_2 H 0.025063 0.441911 0.874042
S1_2 S 0.90933(10) 0.14048(9) 0.22569(7)
N3_2 N 0.9657(2) 0.0927(2) 0.3989(2)
C1_2 C 0.9802(3) 0.0948(3) 0.0003(2)
C6_2 C 0.9347(3) 0.0298(3) 0.0324(3)
H2_2 H 0.890991 0.050072 0.054296
C9_2 C 0.9413(3) 0.1139(3) 0.3272(3)
C19_2 C 0.8809(3) 0.2189(3) 0.0089(3)
H11_2 H 0.888164 0.212258 0.068595
C22_2 C 0.9360(5) 0.3877(4) 0.0358(6)
H16_2 H 0.997587 0.359043 0.053409
C23_2 C 0.9255(7) 0.4214(10) 0.1105(7)
H18_2 H 0.934729 0.370207 0.150476
H19_2 H 0.861380 0.443283 0.094435
C24_2 C 0.9942(8) 0.5017(7) 0.1585(7)
H20_2 H 0.992759 0.510165 0.214708
H21_2 H 0.974937 0.558089 0.125958
O1_2 O 0.9641(2) 0.1887(2) 0.9987(2)
H12_2 H 0.827465 0.181776 0.973196
C21_2 C 0.8648(4) 0.3197(3) 0.9821(4)
H14_2 H 0.861273 0.324518 0.923283
H15_2 H 0.803917 0.338017 0.981510
H17_2 H 0.935343 0.440493 0.999708
N2_2 N 0.8107(2) 0.7429(2) 0.1339(2)
N4_2 N 0.9177(2) 0.8934(2) 0.4102(2)
C2_2 C 0.6797(3) 0.6162(3) 0.0187(2)
H1_2 H 0.663610 0.644277 0.060941
C3_2 C 0.8564(3) 0.8160(3) 0.1804(2)
C4_2 C 0.9534(3) 0.9354(3) 0.0324(2)
C5_2 C 0.7565(3) 0.6510(3) 0.0043(2)
C7_2 C 0.9017(3) 0.8820(3) 0.1485(3)
H3_2 H 0.929792 0.933999 0.181074
C8_2 C 0.9040(3) 0.8685(3) 0.0675(2)
C10_2 C 0.8637(3) 0.8359(3) 0.4332(3)
H4_2 H 0.865592 0.839506 0.489154
C12_2 C 0.9152(3) 0.8859(3) 0.3300(2)
H6_2 H 0.953853 0.924783 0.313826
C13_2 C 0.8575(3) 0.7916(3) 0.0203(3)
C14_2 C 0.8576(3) 0.8228(3) 0.2689(2)
C15_2 C 0.8098(3) 0.7320(3) 0.0542(3)
C18_2 C 0.8050(4) 0.7714(4) 0.3777(3)
H10_2 H 0.768223 0.732410 0.396016
C20_2 C 0.8016(3) 0.7653(3) 0.2949(3)
H13_2 H 0.761740 0.722579 0.256528
C11_2 C 0.7803(3) 0.6084(3) 0.9409(3)
H5_2 H 0.830694 0.630000 0.928621
H7_2 H 0.858391 0.780046 0.966109
C16_2 C 0.7273(3) 0.5332(3) 0.8963(3)
H8_2 H 0.742595 0.502771 0.854639
C17_2 C 0.6521(3) 0.5041(3) 0.9145(3)
H9_2 H 0.616425 0.454410 0.883504
H44_2 H 0.943008 0.513918 0.835614
loop_
_geom_bond_atom_site_label_1
_geom_bond_atom_site_label_2
_geom_bond_site_symmetry_1
_geom_bond_site_symmetry_2
H20 C24 1_555 1_555
H21 C24 1_555 1_555
Co2 N3 1_555 1_555
S1 C9 1_555 1_555
O1 C1 1_555 1_555
N1 C2 1_555 1_555
N2 C3 1_555 1_555
N3 C9 1_555 1_555
N4 Co2 1_555 1_555
C1 C6 1_555 1_555
C2 H1 1_555 1_555
C3 C7 1_555 1_555
C4 C6 1_555 1_555
C5 C2 1_555 1_555
C6 H2 1_555 1_555
C7 H3 1_555 1_555
C8 C4 1_555 1_555
C10 N4 1_555 1_555
H4 C10 1_555 1_555
C11 C5 1_555 1_555
H5 C11 1_555 1_555
C12 N4 1_555 1_555
H6 C12 1_555 1_555
C13 C8 1_555 1_555
H7 C13 1_555 1_555
C14 C3 1_555 1_555
C15 N2 1_555 1_555
C16 C11 1_555 1_555
H8 C16 1_555 1_555
C17 N1 1_555 1_555
C18 C10 1_555 1_555
H10 C18 1_555 1_555
C19 O1 1_555 1_555
H11 C19 1_555 1_555
H12 C19 1_555 1_555
C20 C14 1_555 1_555
H13 C20 1_555 1_555
C21 C19 1_555 1_555
H14 C21 1_555 1_555
H15 C21 1_555 1_555
C22 C21 1_555 1_555
H16 C22 1_555 1_555
H17 C22 1_555 1_555
C23 C22 1_555 1_555
H18 C23 1_555 1_555
H19 C23 1_555 1_555
O2 C25 1_555 1_555
N5 C26 1_555 1_555
N6 C27 1_555 1_555
N7 C33 1_555 1_555
C25 C4 1_555 1_555
C26 H23 1_555 1_555
C27 C31 1_555 1_555
C28 C1 1_555 1_555
C29 C26 1_555 1_555
C30 C25 1_555 1_555
H24 C30 1_555 1_555
C31 H25 1_555 1_555
C32 C28 1_555 1_555
C33 H26 1_555 1_555
C34 C29 1_555 1_555
H27 C34 1_555 1_555
C35 N7 1_555 1_555
H28 C35 1_555 1_555
C36 C32 1_555 1_555
H29 C36 1_555 1_555
C37 C27 1_555 1_555
C38 N6 1_555 1_555
C39 C34 1_555 1_555
H30 C39 1_555 1_555
C40 N5 1_555 1_555
C41 C33 1_555 1_555
H32 C41 1_555 1_555
C42 O2 1_555 1_555
H33 C42 1_555 1_555
H34 C42 1_555 1_555
C43 C37 1_555 1_555
H35 C43 1_555 1_555
C44 C42 1_555 1_555
H36 C44 1_555 1_555
H37 C44 1_555 1_555
C45 C44 1_555 1_555
H38 C45 1_555 1_555
H39 C45 1_555 1_555
C46 C45 1_555 1_555
H40 C46 1_555 1_555
H41 C46 1_555 1_555
Co2_2 N7 1_555 1_555
Co4_2 N5 1_555 1_555
Co4_3 N1 1_555 1_555
N10 Co2 1_555 1_555
C5 C15 1_555 1_555
C7 C8 1_555 1_555
C12 C14 1_555 1_555
C13 C15 1_555 1_555
C16 C17 1_555 1_555
C18 C20 1_555 1_555
C28 C30 1_555 1_555
C29 C38 1_555 1_555
C31 C32 1_555 1_555
C35 C37 1_555 1_555
C36 C38 1_555 1_555
C39 C40 1_555 1_555
C41 C43 1_555 1_555
S2 C48 1_555 1_555
N8 Co2_2 1_555 1_555
C48 N8 1_555 1_555
N9 Co2_2 1_555 1_555
H42 C47 1_555 1_555
H43 C47 1_555 1_555
H27_2 C34_2 1_555 1_555
C39_2 C34_2 1_555 1_555
H30_2 C39_2 1_555 1_555
C40_2 N10 1_555 1_555
H31_2 C40_2 1_555 1_555
N11 Co4 1_555 1_555
C39_2 C40_2 1_555 1_555
N6_2 C27_2 1_555 1_555
N11 C33_2 1_555 1_555
C26_2 H23_2 1_555 1_555
C27_2 C31_2 1_555 1_555
C29_2 C26_2 1_555 1_555
C31_2 H25_2 1_555 1_555
C32_2 C28_2 1_555 1_555
C33_2 H26_2 1_555 1_555
C35_2 N11 1_555 1_555
H28_2 C35_2 1_555 1_555
C36_2 C32_2 1_555 1_555
C37_2 C27_2 1_555 1_555
C38_2 N6_2 1_555 1_555
C41_2 C33_2 1_555 1_555
H32_2 C41_2 1_555 1_555
C43_2 C37_2 1_555 1_555
H35_2 C43_2 1_555 1_555
C29_2 C38_2 1_555 1_555
C31_2 C32_2 1_555 1_555
C35_2 C37_2 1_555 1_555
C36_2 C38_2 1_555 1_555
C41_2 C43_2 1_555 1_555
H36_2 C44_2 1_555 1_555
H37_2 C44_2 1_555 1_555
S2_2 C48_2 1_555 1_555
N8_2 Co4_2 1_555 1_555
C48_2 N8_2 1_555 1_555
C30_2 C25_2 1_555 1_555
H24_2 C30_2 1_555 1_555
H33_2 C42_2 1_555 1_555
H38_2 C45_2 1_555 1_555
C46_2 C45_2 1_555 1_555
H40_2 C46_2 1_555 1_555
H41_2 C46_2 1_555 1_555
C47_2 C46_2 1_555 1_555
H42_2 C47_2 1_555 1_555
H43_2 C47_2 1_555 1_555
Co4_3 N3_2 1_555 1_555
S1_2 C9_2 1_555 1_555
N3_2 C9_2 1_555 1_555
C1_2 C6_2 1_555 1_555
C6_2 H2_2 1_555 1_555
H11_2 C19_2 1_555 1_555
H16_2 C22_2 1_555 1_555
C23_2 C22_2 1_555 1_555
H18_2 C23_2 1_555 1_555
H19_2 C23_2 1_555 1_555
C24_2 C23_2 1_555 1_555
H20_2 C24_2 1_555 1_555
H21_2 C24_2 1_555 1_555
H14_2 C21_2 1_555 1_555
H15_2 C21_2 1_555 1_555
N2_2 C3_2 1_555 1_555
N4_2 Co4_4 1_555 1_555
C2_2 H1_2 1_555 1_555
C3_2 C7_2 1_555 1_555
C5_2 C2_2 1_555 1_555
C7_2 H3_2 1_555 1_555
C8_2 C4_2 1_555 1_555
C10_2 N4_2 1_555 1_555
H4_2 C10_2 1_555 1_555
C12_2 N4_2 1_555 1_555
H6_2 C12_2 1_555 1_555
C13_2 C8_2 1_555 1_555
C14_2 C3_2 1_555 1_555
C15_2 N2_2 1_555 1_555
C18_2 C10_2 1_555 1_555
H10_2 C18_2 1_555 1_555
C20_2 C14_2 1_555 1_555
H13_2 C20_2 1_555 1_555
C5_2 C15_2 1_555 1_555
C7_2 C8_2 1_555 1_555
C12_2 C14_2 1_555 1_555
C13_2 C15_2 1_555 1_555
C18_2 C20_2 1_555 1_555
H5_2 C11_2 1_555 1_555
C16_2 C11_2 1_555 1_555
H8_2 C16_2 1_555 1_555
C17_2 N9 1_555 1_555
H9_2 C17_2 1_555 1_555
C16_2 C17_2 1_555 1_555

#END
