
###############################################################################
#
# This file contains modified crystal structure data generated from the
# MOF subset of the Cambridge Structural Database (CSD) v543 
# hosted by the Cambridge Crystallographic Data Centre (CCDC).
#
# This work is licensed under the Creative Commons
# Attribution-NonCommercial-ShareAlike 4.0 International License.
# To view a copy of this license, visit
# http://creativecommons.org/licenses/by-nc-sa/4.0/
# or send a letter to
# Creative Commons, PO Box 1866, Mountain View, CA 94042, USA.
#
# CIF created using the CSD Python API on 29 September 2022
# The structure has been converted into the P1 space group
# The structure has a 3D framework
# The original CSD entry ZEJXOF is in the monoclinic crystal system
# The framework has been calculated to contain at least 10.0% void space
# The void calculation uses a probe of radius 1.32A, grid spacing 0.4
#
###############################################################################

data_ZEJXOF
_chemical_formula_moiety         '(C88 H72 Co7 N16 O4 S4)n'
_symmetry_cell_setting           triclinic
_symmetry_space_group_name_H-M   'P 1'
_symmetry_Int_Tables_number      1
_space_group_name_Hall           'P 1'
loop_
_symmetry_equiv_pos_site_id
_symmetry_equiv_pos_as_xyz
1 x,y,z
_cell_length_a                   14.7191(2)
_cell_length_b                   15.0949(2)
_cell_length_c                   16.6847(2)
_cell_angle_alpha                90
_cell_angle_beta                 115.5830(10)
_cell_angle_gamma                90
_cell_volume                     3343.62
loop_
_atom_site_label
_atom_site_type_symbol
_atom_site_fract_x
_atom_site_fract_y
_atom_site_fract_z
Co4 Co 0.000000 0.000000 0.500000
Co2 Co 0.000000 0.500000 0.000000
C30 C 0.0734(4) 0.6551(4) 0.9253(4)
H23 H 0.128023 0.652621 0.982828
C38 C 0.0768(5) 0.7165(4) 0.8648(4)
H27 H 0.134511 0.752696 0.878703
Co2_2 Co 0.000000 0.500000 1.000000
Co4_2 Co 0.000000 1.000000 0.500000
H28 H 0.763845 0.050565 0.395220
H31 H 0.606167 0.002498 0.372219
Co4_3 Co 1.000000 0.000000 0.500000
Co2_3 Co 1.000000 0.500000 0.000000
S1 S 0.20844(15) 0.65088(18) 0.26555(14)
N1 N 0.0648(3) 0.5898(3) 0.1036(3)
N2 N 0.1788(3) 0.2511(3) 0.3715(3)
N3 N 0.0042(3) 0.4010(3) 0.0943(3)
O1 O 0.5391(3) 0.3221(3) 0.4932(3)
C1 C 0.2608(4) 0.2366(3) 0.4472(3)
C2 C 0.0820(4) 0.3941(3) 0.1748(4)
H1 H 0.137618 0.432988 0.189114
C3 C 0.1767(4) 0.3239(3) 0.3247(3)
C4 C 0.0856(4) 0.3329(3) 0.2381(4)
C5 C 0.1646(4) 0.1190(3) 0.4839(3)
H2 H 0.104856 0.149516 0.446353
C6 C 0.3401(4) 0.2942(4) 0.4807(4)
H3 H 0.396153 0.281833 0.535609
C7 C 0.2539(4) 0.3863(3) 0.3551(3)
H4 H 0.248456 0.438905 0.322048
C9 C 0.3386(4) 0.3715(3) 0.4336(4)
C10 C 0.5229(4) 0.4085(4) 0.4977(4)
C11 C 0.2576(4) 0.1552(3) 0.4948(3)
C12 C 0.4013(4) 0.5260(3) 0.4702(4)
H6 H 0.333005 0.543897 0.449642
C13 C 0.4218(4) 0.4364(4) 0.4673(4)
C14 C 0.3426(4) 0.1093(4) 0.5494(4)
H7 H 0.407010 0.131361 0.559225
C15 C 0.0052(4) 0.2767(4) 0.2153(4)
H8 H 0.006603 0.232140 0.256005
C17 C 0.1246(4) 0.6165(4) 0.1720(4)
C18 C 0.2413(4) 0.0022(3) 0.5760(4)
C19 C 0.6327(5) 0.2940(4) 0.4948(4)
H11 H 0.688773 0.309686 0.552595
H12 H 0.643818 0.324438 0.447225
C20 C 0.3355(4) 0.0301(4) 0.5909(4)
C21 C 0.6305(6) 0.1960(4) 0.4813(5)
H14 H 0.568787 0.179641 0.427913
H15 H 0.689441 0.177998 0.471181
C22 C 0.6324(7) 0.1483(5) 0.5602(6)
H16 H 0.693005 0.163640 0.611473
H17 H 0.575015 0.165220 0.569783
H18 H 0.630945 0.085550 0.550423
N4 N 0.1553(3) 0.0438(3) 0.5235(3)
N5 N 0.8212(3) 0.7489(3) 0.6285(3)
N6 N 0.9958(3) 0.5990(3) 0.9057(3)
O2 O 0.4609(3) 0.6779(3) 0.5068(3)
C23 C 0.7392(4) 0.7634(3) 0.5528(3)
C24 C 0.9180(4) 0.6059(3) 0.8252(4)
H19 H 0.862382 0.567012 0.810886
C25 C 0.8233(4) 0.6761(3) 0.6753(3)
C26 C 0.9144(4) 0.6671(3) 0.7619(4)
C27 C 0.8354(4) 0.8810(3) 0.5161(3)
H20 H 0.895144 0.850484 0.553647
C28 C 0.6599(4) 0.7058(4) 0.5193(4)
H21 H 0.603847 0.718167 0.464391
C29 C 0.7461(4) 0.6137(3) 0.6449(3)
H22 H 0.751544 0.561095 0.677952
C31 C 0.6614(4) 0.6285(3) 0.5664(4)
C32 C 0.4771(4) 0.5915(4) 0.5023(4)
C33 C 0.7424(4) 0.8448(3) 0.5052(3)
C34 C 0.5987(4) 0.4740(3) 0.5298(4)
H24 H 0.666995 0.456103 0.550358
C35 C 0.5782(4) 0.5636(4) 0.5327(4)
C36 C 0.6574(4) 0.8907(4) 0.4506(4)
H25 H 0.592990 0.868639 0.440775
C37 C 0.9948(4) 0.7233(4) 0.7847(4)
H26 H 0.993397 0.767860 0.743995
C39 C 0.7587(4) 0.9978(3) 0.4240(4)
C40 C 0.3673(5) 0.7060(4) 0.5052(4)
H29 H 0.311227 0.690314 0.447405
H30 H 0.356182 0.675562 0.552775
C41 C 0.6645(4) 0.9699(4) 0.4091(4)
C42 C 0.3695(6) 0.8040(4) 0.5187(5)
H32 H 0.431213 0.820359 0.572087
H33 H 0.310559 0.822002 0.528819
C43 C 0.3676(7) 0.8517(5) 0.4398(6)
H34 H 0.306995 0.836360 0.388527
H35 H 0.424985 0.834780 0.430217
H36 H 0.369055 0.914450 0.449577
N7 N 0.8447(3) 0.9562(3) 0.4765(3)
Co2_4 Co 1.000000 0.500000 1.000000
Co4_4 Co 1.000000 1.000000 0.500000
N11 N 0.1553(3) 0.4562(3) 0.0235(3)
H10 H 0.236155 0.949435 0.604780
H13 H 0.393833 0.997502 0.627781
C8 C 0.9266(4) 0.3449(4) 0.0747(4)
H5 H 0.871977 0.347379 0.017172
C16 C 0.9232(5) 0.2835(4) 0.1352(4)
H9 H 0.865489 0.247304 0.121297
S2 S 0.79156(15) 0.34912(18) 0.73445(14)
N8 N 0.9352(3) 0.4102(3) 0.8964(3)
C44 C 0.8754(4) 0.3835(4) 0.8280(4)
N10 N 0.8447(3) 0.5438(3) 0.9765(3)
N9 N 0.0042(3) 0.0990(3) 0.5943(3)
C8_2 C 0.0734(4) 0.8449(4) 0.4253(4)
H5_2 H 0.128023 0.847379 0.482828
C16_2 C 0.0768(5) 0.7835(4) 0.3648(4)
H9_2 H 0.134511 0.747304 0.378703
S2_2 S 0.20844(15) 0.84912(18) 0.76555(14)
N8_2 N 0.0648(3) 0.9102(3) 0.6036(3)
C44_2 C 0.1246(4) 0.8835(4) 0.6720(4)
S1_2 S 0.79156(15) 0.15088(18) 0.23445(14)
N1_2 N 0.9352(3) 0.0898(3) 0.3964(3)
C12_2 C 0.5987(4) 0.0260(3) 0.0298(4)
H6_2 H 0.666995 0.043897 0.050358
C17_2 C 0.8754(4) 0.1165(4) 0.3280(4)
H21_2 H 0.396153 0.218167 0.035609
C36_2 C 0.3426(4) 0.3907(4) 0.0494(4)
H25_2 H 0.407010 0.368639 0.059225
C39_2 C 0.2413(4) 0.4978(3) 0.0760(4)
H28_2 H 0.236155 0.550565 0.104780
H29_2 H 0.688773 0.190314 0.052595
C41_2 C 0.3355(4) 0.4699(4) 0.0909(4)
H31_2 H 0.393833 0.502498 0.127781
C43_2 C 0.6324(7) 0.3517(5) 0.0602(6)
H34_2 H 0.693005 0.336360 0.111473
H35_2 H 0.575015 0.334780 0.069783
H36_2 H 0.630945 0.414450 0.050423
N5_2 N 0.1788(3) 0.2489(3) 0.8715(3)
O2_2 O 0.5391(3) 0.1779(3) 0.9932(3)
C23_2 C 0.2608(4) 0.2634(3) 0.9472(3)
C24_2 C 0.0820(4) 0.1059(3) 0.6748(4)
H19_2 H 0.137618 0.067012 0.689114
C25_2 C 0.1767(4) 0.1761(3) 0.8247(3)
C26_2 C 0.0856(4) 0.1671(3) 0.7381(4)
C27_2 C 0.1646(4) 0.3810(3) 0.9839(3)
H20_2 H 0.104856 0.350484 0.946353
C28_2 C 0.3401(4) 0.2058(4) 0.9807(4)
C29_2 C 0.2539(4) 0.1137(3) 0.8551(3)
H22_2 H 0.248456 0.061095 0.822048
C31_2 C 0.3386(4) 0.1285(3) 0.9336(4)
C32_2 C 0.5229(4) 0.0915(4) 0.9977(4)
C33_2 C 0.2576(4) 0.3448(3) 0.9948(3)
C35_2 C 0.4218(4) 0.0636(4) 0.9673(4)
C37_2 C 0.0052(4) 0.2233(4) 0.7153(4)
H26_2 H 0.006603 0.267860 0.756005
C40_2 C 0.6327(5) 0.2060(4) 0.9948(4)
H30_2 H 0.643818 0.175562 0.947225
C42_2 C 0.6305(6) 0.3040(4) 0.9813(5)
H32_2 H 0.568787 0.320359 0.927913
H33_2 H 0.689441 0.322002 0.971181
N2_2 N 0.8212(3) 0.7511(3) 0.1285(3)
N3_2 N 0.9958(3) 0.9010(3) 0.4057(3)
O1_2 O 0.4609(3) 0.8221(3) 0.0068(3)
C1_2 C 0.7392(4) 0.7366(3) 0.0528(3)
C2_2 C 0.9180(4) 0.8941(3) 0.3252(4)
H1_2 H 0.862382 0.932988 0.310886
C3_2 C 0.8233(4) 0.8239(3) 0.1753(3)
C4_2 C 0.9144(4) 0.8329(3) 0.2619(4)
C5_2 C 0.8354(4) 0.6190(3) 0.0161(3)
H2_2 H 0.895144 0.649516 0.053647
C6_2 C 0.6599(4) 0.7942(4) 0.0193(4)
C7_2 C 0.7461(4) 0.8863(3) 0.1449(3)
H4_2 H 0.751544 0.938905 0.177952
C9_2 C 0.6614(4) 0.8715(3) 0.0664(4)
C10_2 C 0.4771(4) 0.9085(4) 0.0023(4)
C11_2 C 0.7424(4) 0.6552(3) 0.0052(3)
C13_2 C 0.5782(4) 0.9364(4) 0.0327(4)
C15_2 C 0.9948(4) 0.7767(4) 0.2847(4)
H8_2 H 0.993397 0.732140 0.243995
C19_2 C 0.3673(5) 0.7940(4) 0.0052(4)
H12_2 H 0.356182 0.824438 0.052775
C21_2 C 0.3695(6) 0.6960(4) 0.0187(5)
H14_2 H 0.431213 0.679641 0.072087
H15_2 H 0.310559 0.677998 0.028819
H3_2 H 0.603847 0.781833 0.964391
C14_2 C 0.6574(4) 0.6093(4) 0.9506(4)
H7_2 H 0.592990 0.631361 0.940775
C18_2 C 0.7587(4) 0.5022(3) 0.9240(4)
H10_2 H 0.763845 0.449435 0.895220
H11_2 H 0.311227 0.809686 0.947405
C20_2 C 0.6645(4) 0.5301(4) 0.9091(4)
H13_2 H 0.606167 0.497502 0.872219
C22_2 C 0.3676(7) 0.6483(5) 0.9398(6)
H16_2 H 0.306995 0.663640 0.888527
H17_2 H 0.424985 0.665220 0.930217
H18_2 H 0.369055 0.585550 0.949577
C34_2 C 0.4013(4) 0.9740(3) 0.9702(4)
H24_2 H 0.333005 0.956103 0.949642
C30_2 C 0.9266(4) 0.1551(4) 0.5747(4)
H23_2 H 0.871977 0.152621 0.517172
C38_2 C 0.9232(5) 0.2165(4) 0.6352(4)
H27_2 H 0.865489 0.252696 0.621297
loop_
_geom_bond_atom_site_label_1
_geom_bond_atom_site_label_2
_geom_bond_site_symmetry_1
_geom_bond_site_symmetry_2
H23 C30 1_555 1_555
C38 C30 1_555 1_555
H27 C38 1_555 1_555
Co2 N1 1_555 1_555
S1 C17 1_555 1_555
N1 C17 1_555 1_555
N2 C1 1_555 1_555
N3 Co2 1_555 1_555
O1 C10 1_555 1_555
C1 C6 1_555 1_555
C2 N3 1_555 1_555
H1 C2 1_555 1_555
C3 N2 1_555 1_555
C4 C2 1_555 1_555
C5 H2 1_555 1_555
C6 H3 1_555 1_555
C7 C3 1_555 1_555
H4 C7 1_555 1_555
C9 C6 1_555 1_555
C10 C13 1_555 1_555
C11 C1 1_555 1_555
C12 H6 1_555 1_555
C13 C9 1_555 1_555
C14 C11 1_555 1_555
H7 C14 1_555 1_555
C15 C4 1_555 1_555
H8 C15 1_555 1_555
C19 O1 1_555 1_555
H11 C19 1_555 1_555
H12 C19 1_555 1_555
C20 C14 1_555 1_555
C21 C19 1_555 1_555
H14 C21 1_555 1_555
H15 C21 1_555 1_555
C22 C21 1_555 1_555
H16 C22 1_555 1_555
H17 C22 1_555 1_555
H18 C22 1_555 1_555
N4 C5 1_555 1_555
N5 C23 1_555 1_555
N6 C24 1_555 1_555
O2 C32 1_555 1_555
C23 C28 1_555 1_555
C24 H19 1_555 1_555
C25 N5 1_555 1_555
C26 C24 1_555 1_555
C27 H20 1_555 1_555
C28 H21 1_555 1_555
C29 C25 1_555 1_555
H22 C29 1_555 1_555
C31 C28 1_555 1_555
C32 C12 1_555 1_555
C33 C23 1_555 1_555
C34 C10 1_555 1_555
H24 C34 1_555 1_555
C35 C31 1_555 1_555
C36 C33 1_555 1_555
H25 C36 1_555 1_555
C37 C26 1_555 1_555
H26 C37 1_555 1_555
C40 O2 1_555 1_555
H29 C40 1_555 1_555
H30 C40 1_555 1_555
C41 C36 1_555 1_555
C42 C40 1_555 1_555
H32 C42 1_555 1_555
H33 C42 1_555 1_555
C43 C42 1_555 1_555
H34 C43 1_555 1_555
H35 C43 1_555 1_555
H36 C43 1_555 1_555
N7 C27 1_555 1_555
Co2_4 N6 1_555 1_555
Co4 N4 1_555 1_555
Co4_4 N7 1_555 1_555
N11 Co2 1_555 1_555
C3 C4 1_555 1_555
C5 C11 1_555 1_555
C7 C9 1_555 1_555
C12 C13 1_555 1_555
C18 C20 1_555 1_555
C18 N4 1_555 1_555
C25 C26 1_555 1_555
C27 C33 1_555 1_555
C29 C31 1_555 1_555
C32 C35 1_555 1_555
C34 C35 1_555 1_555
C39 C41 1_555 1_555
C39 N7 1_555 1_555
H5 C8 1_555 1_555
C16 C8 1_555 1_555
H9 C16 1_555 1_555
S2 C44 1_555 1_555
N8 Co2_4 1_555 1_555
C44 N8 1_555 1_555
N10 Co2_4 1_555 1_555
N9 Co4 1_555 1_555
H5_2 C8_2 1_555 1_555
C16_2 C8_2 1_555 1_555
H9_2 C16_2 1_555 1_555
S2_2 C44_2 1_555 1_555
N8_2 Co4_2 1_555 1_555
C44_2 N8_2 1_555 1_555
Co4_3 N1_2 1_555 1_555
S1_2 C17_2 1_555 1_555
N1_2 C17_2 1_555 1_555
C12_2 H6_2 1_555 1_555
H25_2 C36_2 1_555 1_555
C39_2 H28_2 1_555 1_555
C41_2 C36_2 1_555 1_555
H31_2 C41_2 1_555 1_555
H34_2 C43_2 1_555 1_555
H35_2 C43_2 1_555 1_555
H36_2 C43_2 1_555 1_555
C39_2 C41_2 1_555 1_555
C39_2 N11 1_555 1_555
N5_2 C23_2 1_555 1_555
N9 C24_2 1_555 1_555
O2_2 C32_2 1_555 1_555
C23_2 C28_2 1_555 1_555
C24_2 H19_2 1_555 1_555
C25_2 N5_2 1_555 1_555
C26_2 C24_2 1_555 1_555
C27_2 H20_2 1_555 1_555
C29_2 C25_2 1_555 1_555
H22_2 C29_2 1_555 1_555
C31_2 C28_2 1_555 1_555
C33_2 C23_2 1_555 1_555
C35_2 C31_2 1_555 1_555
C37_2 C26_2 1_555 1_555
H26_2 C37_2 1_555 1_555
C40_2 O2_2 1_555 1_555
H30_2 C40_2 1_555 1_555
C42_2 C40_2 1_555 1_555
H32_2 C42_2 1_555 1_555
H33_2 C42_2 1_555 1_555
C25_2 C26_2 1_555 1_555
C27_2 C33_2 1_555 1_555
C29_2 C31_2 1_555 1_555
C32_2 C35_2 1_555 1_555
N2_2 C1_2 1_555 1_555
N3_2 Co4_4 1_555 1_555
O1_2 C10_2 1_555 1_555
C1_2 C6_2 1_555 1_555
C2_2 N3_2 1_555 1_555
H1_2 C2_2 1_555 1_555
C3_2 N2_2 1_555 1_555
C4_2 C2_2 1_555 1_555
C5_2 H2_2 1_555 1_555
C7_2 C3_2 1_555 1_555
H4_2 C7_2 1_555 1_555
C9_2 C6_2 1_555 1_555
C10_2 C13_2 1_555 1_555
C11_2 C1_2 1_555 1_555
C13_2 C9_2 1_555 1_555
C15_2 C4_2 1_555 1_555
H8_2 C15_2 1_555 1_555
C19_2 O1_2 1_555 1_555
H12_2 C19_2 1_555 1_555
C21_2 C19_2 1_555 1_555
H14_2 C21_2 1_555 1_555
H15_2 C21_2 1_555 1_555
C3_2 C4_2 1_555 1_555
C5_2 C11_2 1_555 1_555
C7_2 C9_2 1_555 1_555
H7_2 C14_2 1_555 1_555
C18_2 H10_2 1_555 1_555
C20_2 C14_2 1_555 1_555
H13_2 C20_2 1_555 1_555
H16_2 C22_2 1_555 1_555
H17_2 C22_2 1_555 1_555
H18_2 C22_2 1_555 1_555
H24_2 C34_2 1_555 1_555
C18_2 C20_2 1_555 1_555
C18_2 N10 1_555 1_555
H23_2 C30_2 1_555 1_555
C38_2 C30_2 1_555 1_555
H27_2 C38_2 1_555 1_555

#END
