
###############################################################################
#
# This file contains modified crystal structure data generated from the
# MOF subset of the Cambridge Structural Database (CSD) v543 
# hosted by the Cambridge Crystallographic Data Centre (CCDC).
#
# This work is licensed under the Creative Commons
# Attribution-NonCommercial-ShareAlike 4.0 International License.
# To view a copy of this license, visit
# http://creativecommons.org/licenses/by-nc-sa/4.0/
# or send a letter to
# Creative Commons, PO Box 1866, Mountain View, CA 94042, USA.
#
# CIF created using the CSD Python API on 29 September 2022
# The structure has been converted into the P1 space group
# The structure has a 3D framework
# The original CSD entry ZEKJIL is in the triclinic crystal system
# The framework has been calculated to contain at least 10.0% void space
# The void calculation uses a probe of radius 1.32A, grid spacing 0.4
#
###############################################################################

data_ZEKJIL
_chemical_formula_moiety         '(C32 H18 Ni6 O30 S4)n'
_symmetry_cell_setting           triclinic
_symmetry_space_group_name_H-M   'P 1'
_symmetry_Int_Tables_number      1
_space_group_name_Hall           'P 1'
loop_
_symmetry_equiv_pos_site_id
_symmetry_equiv_pos_as_xyz
1 x,y,z
_cell_length_a                   9.8415(13)
_cell_length_b                   11.0066(15)
_cell_length_c                   12.6355(17)
_cell_angle_alpha                104.131(3)
_cell_angle_beta                 92.127(3)
_cell_angle_gamma                110.798(3)
_cell_volume                     1229.17
loop_
_atom_site_label
_atom_site_type_symbol
_atom_site_fract_x
_atom_site_fract_y
_atom_site_fract_z
Na1 Na 0.0175(3) 0.7104(2) 0.54288(18)
O24 O 0.1354(5) 0.9119(4) 0.6724(3)
O27 O 0.1920(4) 0.6086(4) 0.6383(3)
O13 O 0.8646(5) 0.0881(4) 0.3276(3)
Ni4 Ni 0.13279(7) 0.13672(6) 0.00976(5)
Ni7 Ni 0.34666(7) 0.16310(6) 0.20069(5)
Na4 Na 0.9825(3) 0.2896(2) 0.45712(18)
C2 C 0.1994(5) 0.6682(5) 0.0546(4)
H1 H 0.2307 0.6988 0.1301
C7 C 0.1940(5) 0.4374(5) 0.0551(4)
C8 C 0.1813(5) 0.8935(4) 0.0568(4)
C9 C 0.5886(5) 0.5961(5) 0.2705(4)
C10 C 0.6126(5) 0.6166(5) 0.3832(4)
H4 H 0.5788 0.5430 0.4124
C11 C 0.6854(5) 0.7436(5) 0.4526(4)
C12 C 0.7358(5) 0.8544(5) 0.4094(4)
H5 H 0.7806 0.9415 0.4560
C13 C 0.7185(5) 0.8331(5) 0.2976(4)
C14 C 0.6446(5) 0.7045(5) 0.2265(4)
H6 H 0.6330 0.6917 0.1507
C15 C 0.5067(5) 0.4559(5) 0.1982(4)
C16 C 0.7118(5) 0.7571(5) 0.5740(4)
O2 O 0.2238(4) 0.4769(3) 0.1588(3)
O3 O 0.3592(3) 0.1790(3) 0.0321(3)
O4 O 0.0964(3) 0.9387(3) 0.0121(3)
O5 O 0.2760(4) 0.9610(3) 0.1378(3)
O6 O 0.5554(4) 0.1762(4) 0.2211(4)
O7 O 0.4232(3) 0.3725(3) 0.2469(3)
O8 O 0.5215(4) 0.4275(3) 0.1003(3)
O9 O 0.6750(4) 0.8383(3) 0.6409(3)
O10 O 0.7700(4) 0.6783(4) 0.5950(3)
O11 O 0.8877(4) 0.9347(3) 0.1639(3)
O12 O 0.6629(4) 0.9750(4) 0.1781(3)
O17 O 0.1508(3) 0.1848(3) 0.1732(3)
H7 H 0.0705 0.1224 0.2001
S1 S 0.78825(15) 0.96886(12) 0.23847(10)
Ni3 Ni 0.21656(7) 0.37336(6) 0.26624(5)
H8 H 0.626(3) 0.246(3) 0.269(3)
H9 H 0.581(4) 0.105(3) 0.202(4)
O21 O 0.3250(4) 0.1617(3) 0.3591(3)
O22 O 0.2300(4) 0.3217(4) 0.4050(3)
O25 O 0.9459(4) 0.5742(4) 0.6662(3)
O26 O 0.0541(4) 0.4258(4) 0.3338(3)
O28 O 0.9736(5) 0.6116(4) 0.3550(3)
Ni8 Ni 0.65334(7) 0.83690(6) 0.79931(5)
Ni10 Ni 0.78344(7) 0.62664(6) 0.73376(5)
C1 C 0.1805(5) 0.5380(5) 0.9968(4)
C3 C 0.1709(5) 0.7539(5) 0.9985(4)
C4 C 0.1308(5) 0.7089(5) 0.8858(4)
H2 H 0.1128 0.7658 0.8484
C5 C 0.1169(5) 0.5799(5) 0.8279(4)
C6 C 0.1392(5) 0.4940(5) 0.8836(4)
H3 H 0.1266 0.4063 0.8451
O1 O 0.1684(4) 0.3205(3) 0.9953(3)
O16 O 0.0264(5) 0.3884(4) 0.6450(3)
S2 S 0.06823(14) 0.53171(13) 0.68477(10)
O23 O 0.1123(4) 0.0653(3) 0.8361(3)
Ni6 Ni 0.86721(7) 0.86328(6) 0.99024(5)
O19 O 0.9036(3) 0.0613(3) 0.9879(3)
O20 O 0.7240(4) 0.0390(3) 0.8622(3)
C1_2 C 0.8195(5) 0.4620(5) 0.0032(4)
C3_2 C 0.8291(5) 0.2461(5) 0.0015(4)
C4_2 C 0.8692(5) 0.2911(5) 0.1142(4)
H2_2 H 0.8872 0.2342 0.1516
C5_2 C 0.8831(5) 0.4201(5) 0.1721(4)
C6_2 C 0.8608(5) 0.5060(5) 0.1164(4)
H3_2 H 0.8734 0.5937 0.1549
O1_2 O 0.8316(4) 0.6795(3) 0.0047(3)
O15 O 0.8080(4) 0.3914(4) 0.3617(3)
S2_2 S 0.93177(14) 0.46829(13) 0.31523(10)
C2_2 C 0.8006(5) 0.3318(5) 0.9454(4)
H1_2 H 0.7693 0.3012 0.8699
C7_2 C 0.8060(5) 0.5626(5) 0.9449(4)
C8_2 C 0.8187(5) 0.1065(4) 0.9432(4)
C9_2 C 0.4114(5) 0.4039(5) 0.7295(4)
C10_2 C 0.3874(5) 0.3834(5) 0.6168(4)
H4_2 H 0.4212 0.4570 0.5876
C11_2 C 0.3146(5) 0.2564(5) 0.5474(4)
C12_2 C 0.2642(5) 0.1456(5) 0.5906(4)
H5_2 H 0.2194 0.0585 0.5440
C13_2 C 0.2815(5) 0.1669(5) 0.7024(4)
C14_2 C 0.3554(5) 0.2955(5) 0.7735(4)
H6_2 H 0.3670 0.3083 0.8493
C15_2 C 0.4933(5) 0.5441(5) 0.8018(4)
C16_2 C 0.2882(5) 0.2429(5) 0.4260(4)
O2_2 O 0.7762(4) 0.5231(3) 0.8412(3)
O3_2 O 0.6408(3) 0.8210(3) 0.9679(3)
O6_2 O 0.4446(4) 0.8238(4) 0.7789(4)
O7_2 O 0.5768(3) 0.6275(3) 0.7531(3)
O8_2 O 0.4785(4) 0.5725(3) 0.8997(3)
O12_2 O 0.3371(4) 0.0250(4) 0.8219(3)
O17_2 O 0.8492(3) 0.8152(3) 0.8268(3)
H7_2 H 0.9295 0.8776 0.7999
S1_2 S 0.21175(15) 0.03114(12) 0.76153(10)
H8_2 H 0.374(3) 0.754(3) 0.731(3)
H9_2 H 0.419(4) 0.895(3) 0.798(4)
loop_
_geom_bond_atom_site_label_1
_geom_bond_atom_site_label_2
_geom_bond_site_symmetry_1
_geom_bond_site_symmetry_2
O24 Na1 1_555 1_555
O27 Na1 1_555 1_555
Na4 O13 1_555 1_555
C2 H1 1_555 1_555
C9 C10 1_555 1_555
C10 H4 1_555 1_555
C11 C10 1_555 1_555
C12 C11 1_555 1_555
H5 C12 1_555 1_555
C13 C12 1_555 1_555
C14 C9 1_555 1_555
H6 C14 1_555 1_555
C15 C9 1_555 1_555
C16 C11 1_555 1_555
O2 C7 1_555 1_555
O3 Ni4 1_555 1_555
O4 C8 1_555 1_555
O5 C8 1_555 1_555
O6 Ni7 1_555 1_555
O7 C15 1_555 1_555
O8 C15 1_555 1_555
O9 C16 1_555 1_555
O10 C16 1_555 1_555
O11 S1 1_555 1_555
O12 S1 1_555 1_555
O17 H7 1_555 1_555
S1 C13 1_555 1_555
Ni7 O3 1_555 1_555
Ni3 O2 1_555 1_555
H8 O6 1_555 1_555
H9 O6 1_555 1_555
O21 Ni7 1_555 1_555
O22 Ni3 1_555 1_555
O26 Ni3 1_555 1_555
Ni8 O9 1_555 1_555
Ni10 O10 1_555 1_555
C13 C14 1_555 1_555
O7 Ni7 1_555 1_555
O7 Ni3 1_555 1_555
O17 Ni4 1_555 1_555
O17 Ni7 1_555 1_555
O17 Ni3 1_555 1_555
O25 Ni10 1_555 1_555
C4 C3 1_555 1_555
H2 C4 1_555 1_555
C5 C4 1_555 1_555
C6 C1 1_555 1_555
H3 C6 1_555 1_555
O27 S2 1_555 1_555
O16 S2 1_555 1_555
S2 C5 1_555 1_555
C5 C6 1_555 1_555
C4_2 C3_2 1_555 1_555
H2_2 C4_2 1_555 1_555
C5_2 C4_2 1_555 1_555
C6_2 C1_2 1_555 1_555
H3_2 C6_2 1_555 1_555
O15 S2_2 1_555 1_555
O28 S2_2 1_555 1_555
S2_2 C5_2 1_555 1_555
C5_2 C6_2 1_555 1_555
O15 Na4 1_555 1_555
C2_2 H1_2 1_555 1_555
C9_2 C10_2 1_555 1_555
C10_2 H4_2 1_555 1_555
C11_2 C10_2 1_555 1_555
C12_2 C11_2 1_555 1_555
H5_2 C12_2 1_555 1_555
C13_2 C12_2 1_555 1_555
C14_2 C9_2 1_555 1_555
H6_2 C14_2 1_555 1_555
C15_2 C9_2 1_555 1_555
C16_2 C11_2 1_555 1_555
O2_2 C7_2 1_555 1_555
O3_2 Ni6 1_555 1_555
O19 C8_2 1_555 1_555
O20 C8_2 1_555 1_555
O6_2 Ni8 1_555 1_555
O7_2 C15_2 1_555 1_555
O8_2 C15_2 1_555 1_555
O21 C16_2 1_555 1_555
O22 C16_2 1_555 1_555
O23 S1_2 1_555 1_555
O12_2 S1_2 1_555 1_555
O17_2 H7_2 1_555 1_555
S1_2 C13_2 1_555 1_555
Ni8 O3_2 1_555 1_555
Ni10 O2_2 1_555 1_555
H8_2 O6_2 1_555 1_555
H9_2 O6_2 1_555 1_555
C13_2 C14_2 1_555 1_555
O7_2 Ni8 1_555 1_555
O7_2 Ni10 1_555 1_555
O17_2 Ni6 1_555 1_555
O17_2 Ni8 1_555 1_555
O17_2 Ni10 1_555 1_555

#END
