
###############################################################################
#
# This file contains modified crystal structure data generated from the
# MOF subset of the Cambridge Structural Database (CSD) v543 
# hosted by the Cambridge Crystallographic Data Centre (CCDC).
#
# This work is licensed under the Creative Commons
# Attribution-NonCommercial-ShareAlike 4.0 International License.
# To view a copy of this license, visit
# http://creativecommons.org/licenses/by-nc-sa/4.0/
# or send a letter to
# Creative Commons, PO Box 1866, Mountain View, CA 94042, USA.
#
# CIF created using the CSD Python API on 29 September 2022
# The structure has been converted into the P1 space group
# The structure has a 3D framework
# The original CSD entry ZEKNIP is in the triclinic crystal system
# The framework has been calculated to contain at least 10.0% void space
# The void calculation uses a probe of radius 1.32A, grid spacing 0.4
#
###############################################################################

data_ZEKNIP
_chemical_formula_moiety         '(C36 H34 N8 O13 Zn4)n'
_symmetry_cell_setting           triclinic
_symmetry_space_group_name_H-M   'P 1'
_symmetry_Int_Tables_number      1
_space_group_name_Hall           'P 1'
loop_
_symmetry_equiv_pos_site_id
_symmetry_equiv_pos_as_xyz
1 x,y,z
_cell_length_a                   8.6199(9)
_cell_length_b                   10.1025(10)
_cell_length_c                   14.4797(15)
_cell_angle_alpha                81.768(7)
_cell_angle_beta                 82.393(6)
_cell_angle_gamma                87.194(7)
_cell_volume                     1236.38
loop_
_atom_site_label
_atom_site_type_symbol
_atom_site_fract_x
_atom_site_fract_y
_atom_site_fract_z
_atom_site_U_iso_or_equiv
_atom_site_thermal_displace_type
N7 N 0.0946(8) 0.2840(6) 0.2696(4) 0.0486 Uani
C30 C 0.0286(11) 0.1678(8) 0.2667(6) 0.0647 Uani
H28 H 0.0467 0.1303 0.2110 0.0770 Uiso
C31 C 0.0687(12) 0.3367(9) 0.3511(6) 0.0735 Uani
H29 H 0.1145 0.4170 0.3546 0.0880 Uiso
Zn9 Zn 0.19648(10) 0.39271(8) 0.14995(5) 0.0450 Uani
O16 O 0.0286(6) 0.4899(4) 0.0925(3) 0.0401 Uani
O9 O 0.0017(8) 0.7454(5) 0.1318(4) 0.0637 Uani
C19 C 0.0208(10) 0.8130(7) 0.0539(5) 0.0467 Uani
C20 C 0.0031(12) 0.9621(7) 0.0466(5) 0.0628 Uani
H18 H 0.0898 0.9942 0.0727 0.0750 Uiso
Zn1 Zn 0.84609(9) 0.42304(7) 0.03626(5) 0.0383 Uani
C1 C 0.4240(10) 0.1568(9) 0.4044(6) 0.0603 Uani
H1 H 0.4108 0.1997 0.4577 0.0720 Uiso
N1 N 0.7091(8) 0.3333(6) 0.1613(4) 0.0468 Uani
N2 N 0.2666(9) 0.0097(7) 0.4939(4) 0.0627 Uani
N4 N 0.3593(9) 0.0503(8) 0.4067(5) 0.0653 Uani
C5 C 0.5213(9) 0.2177(8) 0.3198(5) 0.0497 Uani
C7 C 0.6860(10) 0.3903(7) 0.2399(5) 0.0528 Uani
H7 H 0.7321 0.4714 0.2408 0.0630 Uiso
C12 C 0.5974(10) 0.3332(8) 0.3179(6) 0.0577 Uani
H11 H 0.5881 0.3740 0.3721 0.0690 Uiso
C13 C 0.6350(10) 0.2210(8) 0.1607(6) 0.0553 Uani
H12 H 0.6449 0.1823 0.1056 0.0660 Uiso
C15 C 0.5434(11) 0.1600(9) 0.2400(6) 0.0636 Uani
H14 H 0.4970 0.0793 0.2383 0.0760 Uiso
O5 O 0.3076(6) 0.2648(5) 0.0785(4) 0.0516 Uani
O6 O 0.9414(6) 0.2345(4) 0.0223(3) 0.0486 Uani
O10 O 0.3414(7) 0.6227(5) 0.0445(4) 0.0567 Uani
O11 O 0.3211(7) 0.5262(5) 0.1929(3) 0.0558 Uani
C22 C 0.5598(9) 0.7988(6) 0.0661(5) 0.0486 Uani
H21 H 0.4890 0.8485 0.0261 0.0590 Uiso
H22 H 0.6248 0.8624 0.0860 0.0590 Uiso
C23 C 0.3680(8) 0.6197(7) 0.1258(5) 0.0449 Uani
C24 C 0.4669(10) 0.7253(7) 0.1505(5) 0.0544 Uani
H23 H 0.5378 0.6834 0.1935 0.0650 Uiso
H24 H 0.3995 0.7887 0.1825 0.0650 Uiso
C36 C 0.6631(8) 0.7047(7) 0.0101(5) 0.0423 Uani
O13 O 0.7155(6) 0.6015(5) 0.0564(3) 0.0500 Uani
H34 H 0.011(8) 0.568(6) 0.118(4) 0.0310 Uiso
C6 C 0.0661(11) 0.9001(8) 0.6574(5) 0.0605 Uani
H6 H 0.1112 0.9803 0.6620 0.0730 Uiso
C8 C 0.0899(10) 0.8442(8) 0.5757(5) 0.0550 Uani
C9 C 0.1931(12) 0.9054(9) 0.4911(6) 0.0658 Uani
H8 H 0.2034 0.8667 0.4360 0.0790 Uiso
C14 C 0.0227(12) 0.7241(9) 0.5712(6) 0.0728 Uani
H13 H 0.0394 0.6851 0.5161 0.0880 Uiso
H19 H 0.9080 0.9833 0.0862 0.0750 Uiso
H16 H 0.0920 0.0167 0.9138 0.0750 Uiso
Zn7 Zn 0.15391(9) 0.57696(7) 0.96374(5) 0.0383 Uani
O8 O 0.0586(6) 0.7655(4) 0.9777(3) 0.0486 Uani
C26 C 0.9339(11) 0.0999(8) 0.3426(5) 0.0605 Uani
H25 H 0.8888 0.0197 0.3380 0.0730 Uiso
C28 C 0.9101(10) 0.1558(8) 0.4243(5) 0.0550 Uani
C29 C 0.8069(12) 0.0946(9) 0.5089(6) 0.0658 Uani
H27 H 0.7966 0.1333 0.5640 0.0790 Uiso
C34 C 0.9773(12) 0.2759(9) 0.4288(6) 0.0728 Uani
H32 H 0.9606 0.3149 0.4839 0.0880 Uiso
Zn2 Zn 0.80352(10) 0.60729(8) 0.85005(5) 0.0450 Uani
O1 O 0.6586(7) 0.3773(5) 0.9555(4) 0.0567 Uani
O2 O 0.6789(7) 0.4738(5) 0.8071(3) 0.0558 Uani
C2 C 0.4402(9) 0.2012(6) 0.9339(5) 0.0486 Uani
H2 H 0.5110 0.1515 0.9739 0.0590 Uiso
H3 H 0.3752 0.1376 0.9140 0.0590 Uiso
C3 C 0.6320(8) 0.3803(7) 0.8742(5) 0.0449 Uani
C4 C 0.5331(10) 0.2747(7) 0.8495(5) 0.0544 Uani
H4 H 0.4622 0.3166 0.8065 0.0650 Uiso
H5 H 0.6005 0.2113 0.8175 0.0650 Uiso
O3 O 0.9714(6) 0.5101(4) 0.9075(3) 0.0401 Uani
C16 C 0.3369(8) 0.2953(7) 0.9899(5) 0.0423 Uani
O4 O 0.2845(6) 0.3985(5) 0.9436(3) 0.0500 Uani
O7 O 0.9983(8) 0.2546(5) 0.8682(4) 0.0637 Uani
C17 C 0.9792(10) 0.1870(7) 0.9461(5) 0.0467 Uani
C18 C 0.9969(12) 0.0379(7) 0.9534(5) 0.0628 Uani
H15 H 0.9102 0.0058 0.9273 0.0750 Uiso
H17 H 0.989(8) 0.432(6) 0.882(4) 0.0310 Uiso
C21 C 0.5760(10) 0.8432(9) 0.5956(6) 0.0603 Uani
H20 H 0.5892 0.8003 0.5423 0.0720 Uiso
N5 N 0.2909(8) 0.6667(6) 0.8387(4) 0.0468 Uani
N6 N 0.7334(9) 0.9903(7) 0.5061(4) 0.0627 Uani
N8 N 0.6407(9) 0.9497(8) 0.5933(5) 0.0653 Uani
C25 C 0.4787(9) 0.7823(8) 0.6802(5) 0.0497 Uani
C27 C 0.3140(10) 0.6097(7) 0.7601(5) 0.0528 Uani
H26 H 0.2679 0.5286 0.7592 0.0630 Uiso
C32 C 0.4026(10) 0.6668(8) 0.6821(6) 0.0577 Uani
H30 H 0.4119 0.6260 0.6279 0.0690 Uiso
C33 C 0.3650(10) 0.7790(8) 0.8393(6) 0.0553 Uani
H31 H 0.3551 0.8177 0.8944 0.0660 Uiso
C35 C 0.4566(11) 0.8400(9) 0.7600(6) 0.0636 Uani
H33 H 0.5030 0.9207 0.7617 0.0760 Uiso
O14 O 0.6924(6) 0.7352(5) 0.9215(4) 0.0516 Uani
N9 N 0.9054(8) 0.7160(6) 0.7304(4) 0.0486 Uani
C10 C 0.9714(11) 0.8322(8) 0.7333(6) 0.0647 Uani
H9 H 0.9533 0.8697 0.7890 0.0770 Uiso
C11 C 0.9313(12) 0.6633(9) 0.6489(6) 0.0735 Uani
H10 H 0.8855 0.5830 0.6454 0.0880 Uiso
loop_
_atom_site_aniso_label
_atom_site_aniso_U_11
_atom_site_aniso_U_22
_atom_site_aniso_U_33
_atom_site_aniso_U_23
_atom_site_aniso_U_13
_atom_site_aniso_U_12
N7 0.05 0.045 0.043 0.011 0.007 -0.009
C30 0.077 0.054 0.054 0 0.025 -0.024
C31 0.08 0.062 0.072 0.005 0.01 -0.032
Zn9 0.0368 0.0445 0.0454 0.0135 0.0051 -0.0035
O16 0.038 0.03 0.046 0.004 0.008 -0.003
O9 0.091 0.041 0.051 0.006 0.009 -0.006
C19 0.049 0.033 0.056 0 -0.003 -0.008
C20 0.088 0.037 0.061 -0.004 -0.002 -0.005
Zn1 0.0318 0.033 0.0429 0.0091 0.0079 -0.0048
C1 0.047 0.075 0.051 0.009 0.008 -0.013
N1 0.048 0.042 0.043 0.007 0.01 -0.008
N2 0.051 0.077 0.049 0.019 0.01 -0.018
N4 0.059 0.073 0.052 0.02 0.011 -0.018
C5 0.038 0.06 0.043 0.012 0.008 -0.012
C7 0.057 0.046 0.05 0.004 0.004 -0.007
C12 0.057 0.056 0.052 0 0.013 0.002
C13 0.054 0.055 0.053 0.002 0.007 -0.028
C15 0.057 0.064 0.065 0.007 0.004 -0.032
O5 0.043 0.043 0.06 0.012 0.003 0.003
O6 0.057 0.032 0.051 0.005 0.004 -0.005
O10 0.046 0.067 0.052 0.004 0.006 -0.019
O11 0.049 0.061 0.05 0.005 0.007 -0.001
C22 0.044 0.032 0.067 -0.006 0.003 -0.004
C23 0.028 0.046 0.055 -0.001 0.008 0.003
C24 0.057 0.046 0.057 -0.009 0.005 0.002
C36 0.029 0.037 0.058 0.002 -0.001 -0.009
O13 0.039 0.044 0.058 0.009 0.008 0.004
C6 0.068 0.048 0.056 0.003 0.022 -0.017
C8 0.043 0.056 0.056 0.019 0.005 -0.012
C9 0.067 0.072 0.048 0.011 0.016 -0.017
C14 0.078 0.079 0.057 -0.004 0.014 -0.035
Zn7 0.0318 0.033 0.0429 0.0091 0.0079 -0.0048
O8 0.057 0.032 0.051 0.005 0.004 -0.005
C26 0.068 0.048 0.056 0.003 0.022 -0.017
C28 0.043 0.056 0.056 0.019 0.005 -0.012
C29 0.067 0.072 0.048 0.011 0.016 -0.017
C34 0.078 0.079 0.057 -0.004 0.014 -0.035
Zn2 0.0368 0.0445 0.0454 0.0135 0.0051 -0.0035
O1 0.046 0.067 0.052 0.004 0.006 -0.019
O2 0.049 0.061 0.05 0.005 0.007 -0.001
C2 0.044 0.032 0.067 -0.006 0.003 -0.004
C3 0.028 0.046 0.055 -0.001 0.008 0.003
C4 0.057 0.046 0.057 -0.009 0.005 0.002
O3 0.038 0.03 0.046 0.004 0.008 -0.003
C16 0.029 0.037 0.058 0.002 -0.001 -0.009
O4 0.039 0.044 0.058 0.009 0.008 0.004
O7 0.091 0.041 0.051 0.006 0.009 -0.006
C17 0.049 0.033 0.056 0 -0.003 -0.008
C18 0.088 0.037 0.061 -0.004 -0.002 -0.005
C21 0.047 0.075 0.051 0.009 0.008 -0.013
N5 0.048 0.042 0.043 0.007 0.01 -0.008
N6 0.051 0.077 0.049 0.019 0.01 -0.018
N8 0.059 0.073 0.052 0.02 0.011 -0.018
C25 0.038 0.06 0.043 0.012 0.008 -0.012
C27 0.057 0.046 0.05 0.004 0.004 -0.007
C32 0.057 0.056 0.052 0 0.013 0.002
C33 0.054 0.055 0.053 0.002 0.007 -0.028
C35 0.057 0.064 0.065 0.007 0.004 -0.032
O14 0.043 0.043 0.06 0.012 0.003 0.003
N9 0.05 0.045 0.043 0.011 0.007 -0.009
C10 0.077 0.054 0.054 0 0.025 -0.024
C11 0.08 0.062 0.072 0.005 0.01 -0.032
loop_
_geom_bond_atom_site_label_1
_geom_bond_atom_site_label_2
_geom_bond_site_symmetry_1
_geom_bond_site_symmetry_2
N7 C30 1_555 1_555
H28 C30 1_555 1_555
C31 N7 1_555 1_555
H29 C31 1_555 1_555
Zn9 N7 1_555 1_555
O9 C19 1_555 1_555
C19 C20 1_555 1_555
H18 C20 1_555 1_555
C1 H1 1_555 1_555
N1 Zn1 1_555 1_555
N2 N4 1_555 1_555
N4 C1 1_555 1_555
C5 C1 1_555 1_555
C7 N1 1_555 1_555
H7 C7 1_555 1_555
C12 C5 1_555 1_555
H11 C12 1_555 1_555
C13 N1 1_555 1_555
H12 C13 1_555 1_555
C15 C5 1_555 1_555
H14 C15 1_555 1_555
O6 Zn1 1_555 1_555
Zn9 O5 1_555 1_555
O11 Zn9 1_555 1_555
C22 H21 1_555 1_555
H22 C22 1_555 1_555
C23 O10 1_555 1_555
C24 C22 1_555 1_555
H23 C24 1_555 1_555
H24 C24 1_555 1_555
C36 C22 1_555 1_555
O13 Zn1 1_555 1_555
H34 O16 1_555 1_555
C7 C12 1_555 1_555
C13 C15 1_555 1_555
Zn9 O16 1_555 1_555
O11 C23 1_555 1_555
C23 C24 1_555 1_555
C36 O13 1_555 1_555
C6 H6 1_555 1_555
C8 C6 1_555 1_555
H8 C9 1_555 1_555
C14 C8 1_555 1_555
H13 C14 1_555 1_555
C8 C9 1_555 1_555
Zn7 O8 1_555 1_555
C26 H25 1_555 1_555
C28 C26 1_555 1_555
H27 C29 1_555 1_555
C34 C28 1_555 1_555
H32 C34 1_555 1_555
C28 C29 1_555 1_555
Zn2 O2 1_555 1_555
O1 C3 1_555 1_555
O2 C3 1_555 1_555
C2 H2 1_555 1_555
H3 C2 1_555 1_555
C3 C4 1_555 1_555
C4 C2 1_555 1_555
H4 C4 1_555 1_555
H5 C4 1_555 1_555
C16 C2 1_555 1_555
O4 C16 1_555 1_555
O7 C17 1_555 1_555
C18 C17 1_555 1_555
H15 C18 1_555 1_555
H17 O3 1_555 1_555
Zn7 O4 1_555 1_555
C21 H20 1_555 1_555
N5 Zn7 1_555 1_555
N6 N8 1_555 1_555
N8 C21 1_555 1_555
C25 C21 1_555 1_555
C27 N5 1_555 1_555
H26 C27 1_555 1_555
C32 C25 1_555 1_555
H30 C32 1_555 1_555
C33 N5 1_555 1_555
H31 C33 1_555 1_555
C35 C25 1_555 1_555
H33 C35 1_555 1_555
O14 Zn2 1_555 1_555
N9 Zn2 1_555 1_555
Zn2 O3 1_555 1_555
C27 C32 1_555 1_555
C33 C35 1_555 1_555
N9 C10 1_555 1_555
H9 C10 1_555 1_555
C11 N9 1_555 1_555
H10 C11 1_555 1_555

#END
