
###############################################################################
#
# This file contains modified crystal structure data generated from the
# MOF subset of the Cambridge Structural Database (CSD) v543 
# hosted by the Cambridge Crystallographic Data Centre (CCDC).
#
# This work is licensed under the Creative Commons
# Attribution-NonCommercial-ShareAlike 4.0 International License.
# To view a copy of this license, visit
# http://creativecommons.org/licenses/by-nc-sa/4.0/
# or send a letter to
# Creative Commons, PO Box 1866, Mountain View, CA 94042, USA.
#
# CIF created using the CSD Python API on 29 September 2022
# The structure has been converted into the P1 space group
# The structure has a 3D framework
# The original CSD entry ZEKNOV is in the monoclinic crystal system
# The framework has been calculated to contain at least 10.0% void space
# The void calculation uses a probe of radius 1.32A, grid spacing 0.4
#
###############################################################################

data_ZEKNOV
_chemical_formula_moiety         '(C64 H48 N16 O13 Zn2)n'
_symmetry_cell_setting           triclinic
_symmetry_space_group_name_H-M   'P 1'
_symmetry_Int_Tables_number      1
_space_group_name_Hall           'P 1'
loop_
_symmetry_equiv_pos_site_id
_symmetry_equiv_pos_as_xyz
1 x,y,z
_cell_length_a                   25.540(5)
_cell_length_b                   5.831(5)
_cell_length_c                   15.508(5)
_cell_angle_alpha                90
_cell_angle_beta                 118.202(5)
_cell_angle_gamma                90
_cell_volume                     2035.34
loop_
_atom_site_label
_atom_site_type_symbol
_atom_site_fract_x
_atom_site_fract_y
_atom_site_fract_z
Zn1 Zn 0.0000 0.13998(6) 0.2500
O1 O 0.00261(13) 0.3402(3) 0.35231(18)
H2 H 0.0977 0.0942 0.4540
O4 O 0.0547(2) 0.9003(6) 0.6235(3)
C9 C 0.01624(15) 0.5929(5) 0.5152(2)
H7 H 0.0355 0.6423 0.4804
C10 C 0.02450(14) 0.7303(6) 0.6015(2)
Zn2 Zn -0.0000 0.86002(6) 0.7500
O2 O 0.0547(2) 0.0997(6) 0.1235(3)
C1 C 0.01624(15) 0.4071(5) 0.0152(2)
C3 C 0.02450(14) 0.2697(6) 0.1015(2)
H1 H 0.0355 0.3577 0.9804
O3 O 0.00261(13) 0.6598(3) 0.85231(18)
H8 H 0.0977 0.9058 0.9540
N1 N 0.06942(10) 0.9265(4) 0.33090(17)
C2 C 0.10476(14) 0.9656(6) 0.4254(2)
N2 N 0.22497(14) 0.3094(6) 0.4632(3)
C4 C 0.16198(16) 0.6274(5) 0.4412(3)
C5 C 0.15130(18) 0.8235(8) 0.4828(3)
H3 H 0.1755 0.8573 0.5486
C6 C 0.07980(14) 0.7394(6) 0.2914(2)
H4 H 0.0553 0.7111 0.2252
C7 C 0.21240(16) 0.4797(7) 0.5017(3)
H5 H 0.2353 0.5100 0.5681
C8 C 0.12494(17) 0.5863(7) 0.3438(3)
H6 H 0.1302 0.4571 0.3136
N4 N 0.27503(14) 0.1906(6) 0.5368(3)
C15 C 0.28760(16) 0.0203(7) 0.4983(3)
H12 H 0.3698 0.0429 0.6864
N3 N 0.43058(10) 0.5735(4) 0.66910(17)
C11 C 0.39524(14) 0.5344(6) 0.5746(2)
H8_2 H 0.4023 0.4058 0.5460
C12 C 0.33802(16) 0.8726(5) 0.5588(3)
C13 C 0.34870(18) 0.6765(8) 0.5172(3)
H9 H 0.3245 0.6427 0.4514
C14 C 0.42020(14) 0.7606(6) 0.7086(2)
H10 H 0.4447 0.7889 0.7748
H11 H 0.2647 0.9900 0.4319
C16 C 0.37506(17) 0.9137(7) 0.6562(3)
Zn3 Zn 0.5000 0.36002(6) 0.7500
N3_2 N 0.56942(10) 0.5735(4) 0.83090(17)
C11_2 C 0.60476(14) 0.5344(6) 0.9254(2)
H8_3 H 0.5977 0.4058 0.9540
C12_2 C 0.66198(16) 0.8726(5) 0.9412(3)
C13_2 C 0.65130(18) 0.6765(8) 0.9828(3)
C14_2 C 0.57980(14) 0.7606(6) 0.7914(2)
H10_2 H 0.5553 0.7889 0.7252
C16_2 C 0.62494(17) 0.9137(7) 0.8438(3)
O3_2 O 0.49739(13) 0.1598(3) 0.64769(18)
O4_2 O 0.5547(2) 0.4003(6) 0.6235(3)
C9_2 C 0.51624(15) 0.0929(5) 0.5152(2)
H7_2 H 0.5355 0.1423 0.4804
C10_2 C 0.52450(14) 0.2303(6) 0.6015(2)
O3_3 O 0.50261(13) 0.1598(3) 0.85231(18)
O4_3 O 0.4453(2) 0.4003(6) 0.8765(3)
C9_3 C 0.48376(15) 0.0929(5) 0.9848(2)
C10_3 C 0.47550(14) 0.2303(6) 0.8985(2)
Zn1_2 Zn 1.0000 0.13998(6) 0.2500
O2_2 O 0.9453(2) 0.0997(6) 0.3765(3)
C1_2 C 0.98376(15) 0.4071(5) 0.4848(2)
H1_2 H 0.9645 0.3577 0.5196
C3_2 C 0.97550(14) 0.2697(6) 0.3985(2)
O3_4 O 0.99739(13) 0.6598(3) 0.64769(18)
Zn2_2 Zn 1.0000 0.86002(6) 0.7500
O5 O 0.99739(13) 0.3402(3) 0.14769(18)
H2_2 H 0.9023 0.0942 0.0460
H7_3 H 0.9645 0.6423 0.0196
O4_4 O 0.9453(2) 0.9003(6) 0.8765(3)
C9_4 C 0.98376(15) 0.5929(5) 0.9848(2)
C10_4 C 0.97550(14) 0.7303(6) 0.8985(2)
H8_4 H 0.9023 0.9058 0.5460
N5 N 0.93058(10) 0.9265(4) 0.16910(17)
C2_2 C 0.89524(14) 0.9656(6) 0.0746(2)
N2_2 N 0.77503(14) 0.3094(6) 0.0368(3)
C4_2 C 0.83802(16) 0.6274(5) 0.0588(3)
C5_2 C 0.84870(18) 0.8235(8) 0.0172(3)
C6_2 C 0.92020(14) 0.7394(6) 0.2086(2)
H4_2 H 0.9447 0.7111 0.2748
C8_2 C 0.87506(17) 0.5863(7) 0.1562(3)
H6_2 H 0.8698 0.4571 0.1864
C15_2 C 0.71240(16) 0.0203(7) 0.0017(3)
H3_2 H 0.8245 0.8573 0.9514
C7_2 C 0.78760(16) 0.4797(7) 0.9983(3)
H5_2 H 0.7647 0.5100 0.9319
N4_2 N 0.72497(14) 0.1906(6) 0.9632(3)
H12_2 H 0.6302 0.0429 0.8136
H9_2 H 0.6755 0.6427 0.0486
H11_2 H 0.7353 0.9900 0.0681
H7_4 H 0.4645 0.1423 0.0196
Zn1_3 Zn 0.5000 0.63998(6) 0.2500
O1_2 O 0.50261(13) 0.8402(3) 0.35231(18)
N1_2 N 0.56942(10) 0.4265(4) 0.33090(17)
O2_3 O 0.4453(2) 0.5997(6) 0.3765(3)
C1_3 C 0.48376(15) 0.9071(5) 0.4848(2)
H1_3 H 0.4645 0.8577 0.5196
C2_3 C 0.60476(14) 0.4656(6) 0.4254(2)
H2_3 H 0.5977 0.5942 0.4540
C3_3 C 0.47550(14) 0.7697(6) 0.3985(2)
C4_3 C 0.66198(16) 0.1274(5) 0.4412(3)
C5_3 C 0.65130(18) 0.3235(8) 0.4828(3)
H3_3 H 0.6755 0.3573 0.5486
C6_3 C 0.57980(14) 0.2394(6) 0.2914(2)
H4_3 H 0.5553 0.2111 0.2252
H5_3 H 0.7353 0.0100 0.5681
C8_3 C 0.62494(17) 0.0863(7) 0.3438(3)
O5_2 O 0.49739(13) 0.8402(3) 0.14769(18)
N5_2 N 0.43058(10) 0.4265(4) 0.16910(17)
O2_4 O 0.5547(2) 0.5997(6) 0.1235(3)
C1_4 C 0.51624(15) 0.9071(5) 0.0152(2)
C2_4 C 0.39524(14) 0.4656(6) 0.0746(2)
H2_4 H 0.4023 0.5942 0.0460
C3_4 C 0.52450(14) 0.7697(6) 0.1015(2)
C4_4 C 0.33802(16) 0.1274(5) 0.0588(3)
C5_4 C 0.34870(18) 0.3235(8) 0.0172(3)
C6_4 C 0.42020(14) 0.2394(6) 0.2086(2)
H4_4 H 0.4447 0.2111 0.2748
C8_4 C 0.37506(17) 0.0863(7) 0.1562(3)
N2_3 N 0.72497(14) 0.8094(6) 0.4632(3)
C7_3 C 0.71240(16) 0.9797(7) 0.5017(3)
H6_3 H 0.6302 0.9571 0.3136
N3_3 N 0.93058(10) 0.0735(4) 0.66910(17)
C11_3 C 0.89524(14) 0.0344(6) 0.5746(2)
N4_3 N 0.77503(14) 0.6906(6) 0.5368(3)
C12_3 C 0.83802(16) 0.3726(5) 0.5588(3)
C13_3 C 0.84870(18) 0.1765(8) 0.5172(3)
H9_3 H 0.8245 0.1427 0.4514
C14_3 C 0.92020(14) 0.2606(6) 0.7086(2)
H10_3 H 0.9447 0.2889 0.7748
C15_3 C 0.78760(16) 0.5203(7) 0.4983(3)
H11_3 H 0.7647 0.4900 0.4319
C16_3 C 0.87506(17) 0.4137(7) 0.6562(3)
H12_3 H 0.8698 0.5429 0.6864
H1_4 H 0.5355 0.8577 0.9804
H3_4 H 0.3245 0.3573 0.9514
H5_4 H 0.2647 0.0100 0.9319
N2_4 N 0.27503(14) 0.8094(6) 0.0368(3)
H6_4 H 0.3698 0.9571 0.1864
H9_4 H 0.1755 0.1427 0.0486
C15_4 C 0.21240(16) 0.5203(7) 0.0017(3)
H11_4 H 0.2353 0.4900 0.0681
C7_4 C 0.28760(16) 0.9797(7) 0.9983(3)
N3_4 N 0.06942(10) 0.0735(4) 0.83090(17)
C11_4 C 0.10476(14) 0.0344(6) 0.9254(2)
N4_4 N 0.22497(14) 0.6906(6) 0.9632(3)
C12_4 C 0.16198(16) 0.3726(5) 0.9412(3)
C13_4 C 0.15130(18) 0.1765(8) 0.9828(3)
C14_4 C 0.07980(14) 0.2606(6) 0.7914(2)
H10_4 H 0.0553 0.2889 0.7252
C16_4 C 0.12494(17) 0.4137(7) 0.8438(3)
H12_4 H 0.1302 0.5429 0.8136
loop_
_geom_bond_atom_site_label_1
_geom_bond_atom_site_label_2
_geom_bond_site_symmetry_1
_geom_bond_site_symmetry_2
Zn1 O1 1_555 1_555
O4 C10 1_555 1_555
H7 C9 1_555 1_555
C10 C9 1_555 1_555
O2 C3 1_555 1_555
C3 C1 1_555 1_555
Zn2 O3 1_555 1_555
C2 N1 1_555 1_555
N2 C7 1_555 1_555
C4 C5 1_555 1_555
C5 C2 1_555 1_555
H3 C5 1_555 1_555
C6 N1 1_555 1_555
H4 C6 1_555 1_555
C7 C4 1_555 1_555
H5 C7 1_555 1_555
C8 C4 1_555 1_555
H6 C8 1_555 1_555
N4 N2 1_555 1_555
C15 N4 1_555 1_555
C6 C8 1_555 1_555
N3 C11 1_555 1_555
C11 H8_2 1_555 1_555
C12 C13 1_555 1_555
C13 C11 1_555 1_555
H9 C13 1_555 1_555
C14 N3 1_555 1_555
H10 C14 1_555 1_555
C16 C12 1_555 1_555
Zn3 N3 1_555 1_555
C14 C16 1_555 1_555
N3_2 C11_2 1_555 1_555
C11_2 H8_3 1_555 1_555
C12_2 C13_2 1_555 1_555
C13_2 C11_2 1_555 1_555
C14_2 N3_2 1_555 1_555
H10_2 C14_2 1_555 1_555
C16_2 C12_2 1_555 1_555
Zn3 N3_2 1_555 1_555
C14_2 C16_2 1_555 1_555
O3_2 C10_2 1_555 1_555
O4_2 C10_2 1_555 1_555
H7_2 C9_2 1_555 1_555
C10_2 C9_2 1_555 1_555
Zn3 O3_2 1_555 1_555
O3_3 C10_3 1_555 1_555
O4_3 C10_3 1_555 1_555
C10_3 C9_3 1_555 1_555
Zn3 O3_3 1_555 1_555
O2_2 C3_2 1_555 1_555
C1_2 H1_2 1_555 1_555
C3_2 C1_2 1_555 1_555
Zn2_2 O3_4 1_555 1_555
O5 Zn1_2 1_555 1_555
O4_4 C10_4 1_555 1_555
C10_4 C9_4 1_555 1_555
C2_2 N5 1_555 1_555
C4_2 C5_2 1_555 1_555
C5_2 C2_2 1_555 1_555
C6_2 N5 1_555 1_555
H4_2 C6_2 1_555 1_555
C8_2 C4_2 1_555 1_555
H6_2 C8_2 1_555 1_555
C6_2 C8_2 1_555 1_555
H5_2 C7_2 1_555 1_555
Zn1_3 O1_2 1_555 1_555
O1_2 C3_3 1_555 1_555
N1_2 Zn1_3 1_555 1_555
O2_3 C3_3 1_555 1_555
C1_3 H1_3 1_555 1_555
C2_3 N1_2 1_555 1_555
H2_3 C2_3 1_555 1_555
C3_3 C1_3 1_555 1_555
C4_3 C5_3 1_555 1_555
C5_3 C2_3 1_555 1_555
H3_3 C5_3 1_555 1_555
C6_3 N1_2 1_555 1_555
H4_3 C6_3 1_555 1_555
C8_3 C4_3 1_555 1_555
O5_2 Zn1_3 1_555 1_555
N5_2 Zn1_3 1_555 1_555
C6_3 C8_3 1_555 1_555
O5_2 C3_4 1_555 1_555
O2_4 C3_4 1_555 1_555
C2_4 N5_2 1_555 1_555
H2_4 C2_4 1_555 1_555
C3_4 C1_4 1_555 1_555
C4_4 C5_4 1_555 1_555
C5_4 C2_4 1_555 1_555
C6_4 N5_2 1_555 1_555
H4_4 C6_4 1_555 1_555
C8_4 C4_4 1_555 1_555
C6_4 C8_4 1_555 1_555
N2_3 C7_3 1_555 1_555
N3_3 C11_3 1_555 1_555
N4_3 N2_3 1_555 1_555
C12_3 C13_3 1_555 1_555
C13_3 C11_3 1_555 1_555
H9_3 C13_3 1_555 1_555
C14_3 N3_3 1_555 1_555
H10_3 C14_3 1_555 1_555
C15_3 N4_3 1_555 1_555
H11_3 C15_3 1_555 1_555
C16_3 C12_3 1_555 1_555
H12_3 C16_3 1_555 1_555
C12_3 C15_3 1_555 1_555
C14_3 C16_3 1_555 1_555
H11_4 C15_4 1_555 1_555
N3_4 C11_4 1_555 1_555
C12_4 C13_4 1_555 1_555
C13_4 C11_4 1_555 1_555
C14_4 N3_4 1_555 1_555
H10_4 C14_4 1_555 1_555
C16_4 C12_4 1_555 1_555
H12_4 C16_4 1_555 1_555
C14_4 C16_4 1_555 1_555

#END
