
###############################################################################
#
# This file contains modified crystal structure data generated from the
# MOF subset of the Cambridge Structural Database (CSD) v543 
# hosted by the Cambridge Crystallographic Data Centre (CCDC).
#
# This work is licensed under the Creative Commons
# Attribution-NonCommercial-ShareAlike 4.0 International License.
# To view a copy of this license, visit
# http://creativecommons.org/licenses/by-nc-sa/4.0/
# or send a letter to
# Creative Commons, PO Box 1866, Mountain View, CA 94042, USA.
#
# CIF created using the CSD Python API on 29 September 2022
# The structure has been converted into the P1 space group
# The structure has a 3D framework
# The original CSD entry ZELCEB is in the monoclinic crystal system
# The framework has been calculated to contain at least 10.0% void space
# The void calculation uses a probe of radius 1.32A, grid spacing 0.4
#
###############################################################################

data_ZELCEB
_chemical_formula_moiety         '(C48 H40 In8 N8 O34 P8)n'
_symmetry_cell_setting           triclinic
_symmetry_space_group_name_H-M   'P 1'
_symmetry_Int_Tables_number      1
_space_group_name_Hall           'P 1'
loop_
_symmetry_equiv_pos_site_id
_symmetry_equiv_pos_as_xyz
1 x,y,z
_cell_length_a                   21.9209(16)
_cell_length_b                   11.7036(8)
_cell_length_c                   9.1343(7)
_cell_angle_alpha                90
_cell_angle_beta                 93.602(2)
_cell_angle_gamma                90
_cell_volume                     2338.81
loop_
_atom_site_label
_atom_site_type_symbol
_atom_site_fract_x
_atom_site_fract_y
_atom_site_fract_z
In1 In 0.22590(3) 0.13668(5) 0.26251(6)
P1 P 0.21606(9) 0.41465(17) 0.3998(2)
O1 O 0.2091(4) 0.2934(7) 0.3526(12)
O2 O 0.3016(3) 0.2015(6) 0.1406(6)
O3 O 0.2681(4) 0.4773(6) 0.3425(9)
O5 O 0.2176(4) 0.4215(8) 0.5636(8)
N1 N 0.1359(3) 0.0854(7) 0.3425(8)
C3 C 0.0277(4) 0.0171(8) 0.4649(9)
C4 C 0.2854(4) 0.2515(9) 0.0226(10)
H3 H 0.1625 0.4802 0.3409
C5 C 0.0439(7) 0.1317(9) 0.459(2)
H4 H 0.0184 0.1883 0.4980
C6 C 0.0976(8) 0.1636(11) 0.397(2)
H5 H 0.1078 0.2424 0.3918
O7 O 0.1791(3) 0.2050(7) 0.0582(7)
In4 In 0.27410(3) 0.63668(5) 0.23749(6)
In6 In 0.27410(3) 0.36332(5) 0.73749(6)
O16 O 0.2824(4) 0.0785(8) 0.4364(8)
O4 O 0.3209(3) 0.2950(7) 0.9418(7)
O6 O 0.1984(3) 0.2985(6) 0.8594(6)
C7 C 0.2146(4) 0.2485(9) 0.9774(10)
C1 C 0.1188(5) 0.9755(9) 0.3424(12)
H1 H 0.1446 0.9201 0.3020
C2 C 0.0635(5) 0.9390(9) 0.4004(12)
H2 H 0.0515 0.8610 0.3943
O12 O 0.2319(4) 0.9773(6) 0.1575(9)
C8 C 0.8812(5) 0.0245(9) 0.6576(12)
H6 H 0.8554 0.0799 0.6980
C9 C 0.9365(5) 0.0610(9) 0.5996(12)
H7 H 0.9485 0.1390 0.6057
O13 O 0.7681(4) 0.0227(6) 0.8425(9)
N2 N 0.8641(3) 0.9146(7) 0.6575(8)
C10 C 0.9723(4) 0.9829(8) 0.5351(9)
C11 C 0.9561(7) 0.8683(9) 0.541(2)
H8 H 0.9816 0.8117 0.5020
C12 C 0.9024(8) 0.8364(11) 0.603(2)
H9 H 0.8922 0.7576 0.6082
In2 In 0.77410(3) 0.86332(5) 0.73749(6)
P2 P 0.78394(9) 0.58535(17) 0.6002(2)
O8 O 0.7909(4) 0.7066(7) 0.6474(12)
O9 O 0.7319(4) 0.5227(6) 0.6575(9)
O10 O 0.7824(4) 0.5785(8) 0.4364(8)
H10 H 0.8375 0.5198 0.6591
In3 In 0.72590(3) 0.63668(5) 0.26251(6)
In7 In 0.72590(3) 0.36332(5) 0.76251(6)
O11 O 0.6984(3) 0.7985(6) 0.8594(6)
O14 O 0.8209(3) 0.7950(7) 0.9418(7)
O15 O 0.7176(4) 0.9215(8) 0.5636(8)
C8_2 C 0.1188(5) 0.0245(9) 0.8424(12)
H6_2 H 0.1446 0.0799 0.8020
C9_2 C 0.0635(5) 0.0610(9) 0.9004(12)
H7_2 H 0.0515 0.1390 0.8943
O13_2 O 0.2319(4) 0.0227(6) 0.6575(9)
O10_2 O 0.2176(4) 0.5785(8) 0.0636(8)
N2_2 N 0.1359(3) 0.9146(7) 0.8425(8)
C10_2 C 0.0277(4) 0.9829(8) 0.9649(9)
C11_2 C 0.0439(7) 0.8683(9) 0.959(2)
H8_2 H 0.0184 0.8117 0.9980
C12_2 C 0.0976(8) 0.8364(11) 0.897(2)
H9_2 H 0.1078 0.7576 0.8918
In2_2 In 0.22590(3) 0.86332(5) 0.76251(6)
P2_2 P 0.21606(9) 0.58535(17) 0.8998(2)
O8_2 O 0.2091(4) 0.7066(7) 0.8526(12)
O9_2 O 0.2681(4) 0.5227(6) 0.8425(9)
H10_2 H 0.1625 0.5198 0.8409
O11_2 O 0.3016(3) 0.7985(6) 0.6406(6)
O14_2 O 0.1791(3) 0.7950(7) 0.5582(7)
O15_2 O 0.2824(4) 0.9215(8) 0.9364(8)
In1_2 In 0.77410(3) 0.13668(5) 0.23749(6)
P1_2 P 0.78394(9) 0.41465(17) 0.1002(2)
O1_2 O 0.7909(4) 0.2934(7) 0.1474(12)
O2_2 O 0.6984(3) 0.2015(6) 0.3594(6)
O3_2 O 0.7319(4) 0.4773(6) 0.1575(9)
O4_2 O 0.6791(3) 0.2950(7) 0.5582(7)
N1_2 N 0.8641(3) 0.0854(7) 0.1575(8)
C3_2 C 0.9723(4) 0.0171(8) 0.0351(9)
C4_2 C 0.7146(4) 0.2515(9) 0.4774(10)
H3_2 H 0.8375 0.4802 0.1591
C5_2 C 0.9561(7) 0.1317(9) 0.041(2)
H4_2 H 0.9816 0.1883 0.0020
C6_2 C 0.9024(8) 0.1636(11) 0.103(2)
H5_2 H 0.8922 0.2424 0.1082
O6_2 O 0.8016(3) 0.2985(6) 0.6406(6)
C7_2 C 0.7854(4) 0.2485(9) 0.5226(10)
O7_2 O 0.8209(3) 0.2050(7) 0.4418(7)
O16_2 O 0.7176(4) 0.0785(8) 0.0636(8)
O5_2 O 0.7824(4) 0.4215(8) 0.9364(8)
C1_2 C 0.8812(5) 0.9755(9) 0.1576(12)
H1_2 H 0.8554 0.9201 0.1980
C2_2 C 0.9365(5) 0.9390(9) 0.0996(12)
H2_2 H 0.9485 0.8610 0.1057
O12_2 O 0.7681(4) 0.9773(6) 0.3425(9)
P1_3 P 0.71606(9) 0.91465(17) 0.3998(2)
O1_3 O 0.7091(4) 0.7934(7) 0.3526(12)
O2_3 O 0.8016(3) 0.7015(6) 0.1406(6)
N1_3 N 0.6359(3) 0.5854(7) 0.3425(8)
C1_3 C 0.6188(5) 0.4755(9) 0.3424(12)
H1_3 H 0.6446 0.4201 0.3020
C2_3 C 0.5635(5) 0.4390(9) 0.4004(12)
H2_3 H 0.5515 0.3610 0.3943
C3_3 C 0.5277(4) 0.5171(8) 0.4649(9)
C4_3 C 0.7854(4) 0.7515(9) 0.0226(10)
H3_3 H 0.6625 0.9802 0.3409
C5_3 C 0.5439(7) 0.6317(9) 0.459(2)
H4_3 H 0.5184 0.6883 0.4980
C6_3 C 0.5976(8) 0.6636(11) 0.397(2)
H5_3 H 0.6078 0.7424 0.3918
O7_3 O 0.6791(3) 0.7050(7) 0.0582(7)
N2_3 N 0.3641(3) 0.4146(7) 0.6575(8)
C8_3 C 0.3812(5) 0.5245(9) 0.6576(12)
H6_3 H 0.3554 0.5799 0.6980
C9_3 C 0.4365(5) 0.5610(9) 0.5996(12)
H7_3 H 0.4485 0.6390 0.6057
C10_3 C 0.4723(4) 0.4829(8) 0.5351(9)
C11_3 C 0.4561(7) 0.3683(9) 0.541(2)
H8_3 H 0.4816 0.3117 0.5020
C12_3 C 0.4024(8) 0.3364(11) 0.603(2)
H9_3 H 0.3922 0.2576 0.6082
P2_3 P 0.28394(9) 0.08535(17) 0.6002(2)
O8_3 O 0.2909(4) 0.2066(7) 0.6474(12)
H10_3 H 0.3375 0.0198 0.6591
C7_3 C 0.7146(4) 0.7485(9) 0.9774(10)
P1_4 P 0.28394(9) 0.91465(17) 0.1002(2)
O1_4 O 0.2909(4) 0.7934(7) 0.1474(12)
O2_4 O 0.1984(3) 0.7015(6) 0.3594(6)
N1_4 N 0.3641(3) 0.5854(7) 0.1575(8)
C1_4 C 0.3812(5) 0.4755(9) 0.1576(12)
H1_4 H 0.3554 0.4201 0.1980
C2_4 C 0.4365(5) 0.4390(9) 0.0996(12)
H2_4 H 0.4485 0.3610 0.1057
C3_4 C 0.4723(4) 0.5171(8) 0.0351(9)
C4_4 C 0.2146(4) 0.7515(9) 0.4774(10)
H3_4 H 0.3375 0.9802 0.1591
C5_4 C 0.4561(7) 0.6317(9) 0.041(2)
H4_4 H 0.4816 0.6883 0.0020
C6_4 C 0.4024(8) 0.6636(11) 0.103(2)
H5_4 H 0.3922 0.7424 0.1082
C7_4 C 0.2854(4) 0.7485(9) 0.5226(10)
O7_4 O 0.3209(3) 0.7050(7) 0.4418(7)
N2_4 N 0.6359(3) 0.4146(7) 0.8425(8)
C8_4 C 0.6188(5) 0.5245(9) 0.8424(12)
H6_4 H 0.6446 0.5799 0.8020
C9_4 C 0.5635(5) 0.5610(9) 0.9004(12)
H7_4 H 0.5515 0.6390 0.8943
C10_4 C 0.5277(4) 0.4829(8) 0.9649(9)
C11_4 C 0.5439(7) 0.3683(9) 0.959(2)
H8_4 H 0.5184 0.3117 0.9980
C12_4 C 0.5976(8) 0.3364(11) 0.897(2)
H9_4 H 0.6078 0.2576 0.8918
P2_4 P 0.71606(9) 0.08535(17) 0.8998(2)
O8_4 O 0.7091(4) 0.2066(7) 0.8526(12)
H10_4 H 0.6625 0.0198 0.8409
loop_
_geom_bond_atom_site_label_1
_geom_bond_atom_site_label_2
_geom_bond_site_symmetry_1
_geom_bond_site_symmetry_2
In1 O1 1_555 1_555
P1 O1 1_555 1_555
O2 In1 1_555 1_555
O3 P1 1_555 1_555
O5 P1 1_555 1_555
N1 In1 1_555 1_555
C4 O2 1_555 1_555
H3 P1 1_555 1_555
C5 C3 1_555 1_555
H4 C5 1_555 1_555
C6 N1 1_555 1_555
H5 C6 1_555 1_555
O7 In1 1_555 1_555
In4 O3 1_555 1_555
In6 O5 1_555 1_555
O16 In1 1_555 1_555
C5 C6 1_555 1_555
O6 C7 1_555 1_555
In6 O4 1_555 1_555
O6 In6 1_555 1_555
H1 C1 1_555 1_555
C2 C1 1_555 1_555
H2 C2 1_555 1_555
C8 H6 1_555 1_555
C9 C8 1_555 1_555
H7 C9 1_555 1_555
C11 C10 1_555 1_555
H8 C11 1_555 1_555
C12 N2 1_555 1_555
H9 C12 1_555 1_555
In2 N2 1_555 1_555
P2 O8 1_555 1_555
O8 In2 1_555 1_555
O9 P2 1_555 1_555
O10 P2 1_555 1_555
H10 P2 1_555 1_555
In3 O10 1_555 1_555
In7 O9 1_555 1_555
O11 In2 1_555 1_555
O14 In2 1_555 1_555
O15 In2 1_555 1_555
C11 C12 1_555 1_555
C8_2 H6_2 1_555 1_555
C9_2 C8_2 1_555 1_555
H7_2 C9_2 1_555 1_555
In4 O10_2 1_555 1_555
C11_2 C10_2 1_555 1_555
H8_2 C11_2 1_555 1_555
C12_2 N2_2 1_555 1_555
H9_2 C12_2 1_555 1_555
In2_2 N2_2 1_555 1_555
P2_2 O8_2 1_555 1_555
O8_2 In2_2 1_555 1_555
O9_2 P2_2 1_555 1_555
H10_2 P2_2 1_555 1_555
In6 O9_2 1_555 1_555
O11_2 In2_2 1_555 1_555
O14_2 In2_2 1_555 1_555
O15_2 In2_2 1_555 1_555
C11_2 C12_2 1_555 1_555
In1_2 O1_2 1_555 1_555
P1_2 O1_2 1_555 1_555
O2_2 In1_2 1_555 1_555
O3_2 P1_2 1_555 1_555
O4_2 C4_2 1_555 1_555
N1_2 In1_2 1_555 1_555
C4_2 O2_2 1_555 1_555
H3_2 P1_2 1_555 1_555
C5_2 C3_2 1_555 1_555
H4_2 C5_2 1_555 1_555
C6_2 N1_2 1_555 1_555
H5_2 C6_2 1_555 1_555
O6_2 C7_2 1_555 1_555
C7_2 C4_2 1_555 1_555
O7_2 In1_2 1_555 1_555
In3 O3_2 1_555 1_555
In7 O4_2 1_555 1_555
O16_2 In1_2 1_555 1_555
C5_2 C6_2 1_555 1_555
O6_2 In7 1_555 1_555
C7_2 O7_2 1_555 1_555
In7 O5_2 1_555 1_555
H1_2 C1_2 1_555 1_555
C2_2 C1_2 1_555 1_555
H2_2 C2_2 1_555 1_555
In3 O1_3 1_555 1_555
P1_3 O1_3 1_555 1_555
O2_3 In3 1_555 1_555
O12_2 P1_3 1_555 1_555
O15 P1_3 1_555 1_555
N1_3 In3 1_555 1_555
C1_3 N1_3 1_555 1_555
H1_3 C1_3 1_555 1_555
C2_3 C1_3 1_555 1_555
H2_3 C2_3 1_555 1_555
C3_3 C2_3 1_555 1_555
C4_3 O2_3 1_555 1_555
H3_3 P1_3 1_555 1_555
C5_3 C3_3 1_555 1_555
H4_3 C5_3 1_555 1_555
C6_3 N1_3 1_555 1_555
H5_3 C6_3 1_555 1_555
O7_3 In3 1_555 1_555
N2_3 C8_3 1_555 1_555
C8_3 H6_3 1_555 1_555
C9_3 C8_3 1_555 1_555
H7_3 C9_3 1_555 1_555
C10_3 C3_3 1_555 1_555
C11_3 C10_3 1_555 1_555
H8_3 C11_3 1_555 1_555
C12_3 N2_3 1_555 1_555
H9_3 C12_3 1_555 1_555
In6 N2_3 1_555 1_555
P2_3 O8_3 1_555 1_555
O8_3 In6 1_555 1_555
O13_2 P2_3 1_555 1_555
O16 P2_3 1_555 1_555
H10_3 P2_3 1_555 1_555
C5_3 C6_3 1_555 1_555
C9_3 C10_3 1_555 1_555
C11_3 C12_3 1_555 1_555
O11 C7_3 1_555 1_555
In4 O1_4 1_555 1_555
P1_4 O1_4 1_555 1_555
O2_4 In4 1_555 1_555
O12 P1_4 1_555 1_555
O14_2 C4_4 1_555 1_555
N1_4 In4 1_555 1_555
C1_4 N1_4 1_555 1_555
H1_4 C1_4 1_555 1_555
C2_4 C1_4 1_555 1_555
H2_4 C2_4 1_555 1_555
C3_4 C2_4 1_555 1_555
C4_4 O2_4 1_555 1_555
H3_4 P1_4 1_555 1_555
C5_4 C3_4 1_555 1_555
H4_4 C5_4 1_555 1_555
C6_4 N1_4 1_555 1_555
H5_4 C6_4 1_555 1_555
O11_2 C7_4 1_555 1_555
C7_4 C4_4 1_555 1_555
O7_4 In4 1_555 1_555
C5_4 C6_4 1_555 1_555
C7_4 O7_4 1_555 1_555
N2_4 C8_4 1_555 1_555
C8_4 H6_4 1_555 1_555
C9_4 C8_4 1_555 1_555
H7_4 C9_4 1_555 1_555
C11_4 C10_4 1_555 1_555
H8_4 C11_4 1_555 1_555
C12_4 N2_4 1_555 1_555
H9_4 C12_4 1_555 1_555
In7 N2_4 1_555 1_555
P2_4 O8_4 1_555 1_555
O8_4 In7 1_555 1_555
O13 P2_4 1_555 1_555
H10_4 P2_4 1_555 1_555
C9_4 C10_4 1_555 1_555
C11_4 C12_4 1_555 1_555

#END
