
###############################################################################
#
# This file contains modified crystal structure data generated from the
# MOF subset of the Cambridge Structural Database (CSD) v543 
# hosted by the Cambridge Crystallographic Data Centre (CCDC).
#
# This work is licensed under the Creative Commons
# Attribution-NonCommercial-ShareAlike 4.0 International License.
# To view a copy of this license, visit
# http://creativecommons.org/licenses/by-nc-sa/4.0/
# or send a letter to
# Creative Commons, PO Box 1866, Mountain View, CA 94042, USA.
#
# CIF created using the CSD Python API on 29 September 2022
# The structure has been converted into the P1 space group
# The structure has a 3D framework
# The original CSD entry ZENBOM is in the monoclinic crystal system
# The framework has been calculated to contain at least 10.0% void space
# The void calculation uses a probe of radius 1.32A, grid spacing 0.4
#
###############################################################################

data_ZENBOM
_chemical_formula_moiety         '(C136 H108 Co8 N12 O38)n'
_symmetry_cell_setting           triclinic
_symmetry_space_group_name_H-M   'P 1'
_symmetry_Int_Tables_number      1
_space_group_name_Hall           'P 1'
loop_
_symmetry_equiv_pos_site_id
_symmetry_equiv_pos_as_xyz
1 x,y,z
_cell_length_a                   17.667(7)
_cell_length_b                   19.722(7)
_cell_length_c                   10.110(4)
_cell_angle_alpha                90
_cell_angle_beta                 102.188(5)
_cell_angle_gamma                90
_cell_volume                     3443.21
loop_
_atom_site_label
_atom_site_type_symbol
_atom_site_fract_x
_atom_site_fract_y
_atom_site_fract_z
O7 O 0.0466(4) 0.3798(4) 0.4086(7)
C22 C 0.0023(5) 0.3137(5) 0.1497(10)
H18 H 0.052654 0.303869 0.194784
Co5 Co 0.04999(6) 0.44681(5) 0.56406(12)
O11 O 0.0531(3) 0.5877(3) 0.4054(7)
O8 O 0.9718(5) 0.4668(4) 0.3224(7)
C19 C 0.8542(5) 0.3414(5) 0.0156(9)
C20 C 0.8889(5) 0.3815(5) 0.1214(10)
H17 H 0.862179 0.418358 0.146255
C21 C 0.9637(5) 0.3679(4) 0.1923(9)
C23 C 0.9672(5) 0.2736(5) 0.0406(9)
H19 H 0.994571 0.238149 0.012121
C24 C 0.9978(5) 0.4077(5) 0.3158(9)
Co3 Co 0.95001(6) 0.55319(5) 0.43594(12)
Co2 Co 0.45017(7) 0.44352(5) 0.64841(13)
O1 O 0.8683(3) 0.4939(3) 0.4875(7)
O2 O 0.9469(3) 0.4123(3) 0.5946(7)
O3 O 0.5959(4) 0.4939(3) 0.5082(8)
O4 O 0.5399(3) 0.4014(3) 0.5740(7)
O5 O 0.4816(5) 0.1108(4) 0.3248(7)
O6 O 0.4254(5) 0.0658(5) 0.4816(8)
O9 O 0.5292(5) 0.5199(4) 0.7438(10)
H1 H 0.510(9) 0.548(5) 0.788(12)
H2 H 0.540(9) 0.534(6) 0.673(9)
O10 O 0.3621(4) 0.4900(4) 0.7451(7)
H3 H 0.376(8) 0.476(4) 0.823(4)
H4 H 0.367(8) 0.5309(14) 0.735(9)
N1 N 0.8781(4) 0.6084(3) 0.2804(7)
N3 N 0.7745(4) 0.2590(4) 0.7958(8)
C1 C 0.8810(5) 0.4400(4) 0.5564(9)
C2 C 0.8125(4) 0.4059(4) 0.5929(8)
C3 C 0.7377(5) 0.4326(4) 0.5474(9)
H5 H 0.729573 0.470219 0.490741
C4 C 0.6765(4) 0.4016(4) 0.5888(8)
C5 C 0.6874(5) 0.3438(4) 0.6702(8)
H6 H 0.644969 0.323239 0.694570
C6 C 0.7613(5) 0.3164(4) 0.7155(8)
C7 C 0.8235(4) 0.3485(4) 0.6751(8)
H7 H 0.873231 0.331078 0.703846
C8 C 0.5980(5) 0.4339(4) 0.5517(9)
C9 C 0.7113(5) 0.2306(5) 0.8515(8)
H8 H 0.686867 0.266807 0.892239
H9 H 0.732624 0.198541 0.922443
C10 C 0.6505(5) 0.1951(4) 0.7471(8)
C11 C 0.5750(6) 0.1903(5) 0.7661(10)
H10 H 0.562270 0.208650 0.843304
C12 C 0.5193(5) 0.1585(5) 0.6711(11)
H11 H 0.469248 0.153951 0.685517
C13 C 0.5373(5) 0.1334(5) 0.5547(9)
C14 C 0.6126(6) 0.1361(6) 0.5375(10)
H12 H 0.625459 0.117673 0.460459
C15 C 0.6686(5) 0.1662(5) 0.6353(10)
H13 H 0.719691 0.166844 0.624839
C16 C 0.4761(5) 0.1001(5) 0.4449(10)
C17 C 0.8522(5) 0.2394(4) 0.8605(8)
H14 H 0.883452 0.237651 0.792436
H15 H 0.850578 0.193991 0.896719
C18 C 0.8917(5) 0.2862(4) 0.9745(8)
H16 H 0.804064 0.351486 0.970032
C25 C 0.9049(6) 0.6584(5) 0.2166(12)
H20 H 0.958046 0.661212 0.222321
C26 C 0.8576(6) 0.7068(5) 0.1415(11)
H21 H 0.879157 0.741046 0.097970
C27 C 0.7794(5) 0.7044(5) 0.1314(11)
C28 C 0.7505(5) 0.6489(6) 0.1913(13)
H22 H 0.697459 0.643815 0.184732
C29 C 0.8017(6) 0.6021(6) 0.2601(14)
H23 H 0.781703 0.563850 0.294271
C30 C 0.7252(5) 0.7587(5) 0.0629(11)
C31 C 0.7487(6) 0.8261(6) 0.0667(16)
H24 H 0.799071 0.837839 0.108365
C32 C 0.6973(7) 0.8754(5) 0.0088(15)
H25 H 0.714376 0.920143 0.014321
Co7 Co 0.54983(7) 0.55648(5) 0.35159(13)
Co8 Co 0.45017(7) 0.05648(5) 0.14841(13)
O12 O 0.4041(4) 0.5061(3) 0.4918(8)
O13 O 0.4816(5) 0.3892(4) 0.8248(7)
O14 O 0.9534(4) 0.6202(4) 0.5914(7)
N4 N 0.3743(4) 0.3635(4) 0.5537(8)
N2 N 0.6257(4) 0.8635(4) 0.9463(8)
C33 C 0.6042(6) 0.7993(6) 0.9395(15)
H26 H 0.554491 0.788468 0.892769
C34 C 0.6523(6) 0.7472(5) 0.9990(18)
H27 H 0.633214 0.703131 0.994195
Co6 Co 0.54983(7) 0.94352(5) 0.85159(13)
Co1 Co 0.04999(6) 0.05319(5) 0.06406(12)
N1_2 N 0.1219(4) 0.1084(3) 0.2196(7)
C25_2 C 0.0951(6) 0.1584(5) 0.2834(12)
H20_2 H 0.041954 0.161212 0.277679
C26_2 C 0.1424(6) 0.2068(5) 0.3585(11)
H21_2 H 0.120843 0.241046 0.402030
C27_2 C 0.2206(5) 0.2044(5) 0.3686(11)
C28_2 C 0.2495(5) 0.1489(6) 0.3087(13)
H22_2 H 0.302541 0.143815 0.315268
C29_2 C 0.1983(6) 0.1021(6) 0.2399(14)
H23_2 H 0.218297 0.063850 0.205729
C30_2 C 0.2748(5) 0.2587(5) 0.4371(11)
C31_2 C 0.2513(6) 0.3261(6) 0.4333(16)
H24_2 H 0.200929 0.337839 0.391635
C32_2 C 0.3027(7) 0.3754(5) 0.4912(15)
H25_2 H 0.285624 0.420143 0.485679
C33_2 C 0.3958(6) 0.2993(6) 0.5605(15)
H26_2 H 0.445509 0.288468 0.607231
C34_2 C 0.3477(6) 0.2472(5) 0.5010(18)
H27_2 H 0.366786 0.203131 0.505805
O12_2 O 0.5959(4) 0.0061(3) 0.0082(8)
O9_2 O 0.4708(5) 0.0199(4) 0.7562(10)
H1_2 H 0.490(9) 0.048(5) 0.712(12)
H2_2 H 0.460(9) 0.034(6) 0.827(9)
H4_2 H 0.633(8) 0.0309(14) 0.765(9)
O14_2 O 0.0466(4) 0.1202(4) 0.9086(7)
O1_2 O 0.1317(3) 0.9939(3) 0.0125(7)
O5_2 O 0.5184(5) 0.6108(4) 0.1752(7)
O6_2 O 0.5746(5) 0.5658(5) 0.0184(8)
H5_2 H 0.270427 0.970219 0.009259
H12_2 H 0.374541 0.617673 0.039541
C16_2 C 0.5239(5) 0.6001(5) 0.0551(10)
O15 O 0.0282(5) 0.9668(4) 0.1776(7)
O2_2 O 0.0531(3) 0.9123(3) 0.9054(7)
O3_2 O 0.4041(4) 0.9939(3) 0.9918(8)
O4_2 O 0.4601(3) 0.9014(3) 0.9260(7)
O10_2 O 0.6379(4) 0.9900(4) 0.7549(7)
H3_2 H 0.624(8) 0.976(4) 0.677(4)
N3_2 N 0.2255(4) 0.7590(4) 0.7042(8)
C1_2 C 0.1190(5) 0.9400(4) 0.9436(9)
C2_2 C 0.1875(4) 0.9059(4) 0.9071(8)
C3_2 C 0.2623(5) 0.9326(4) 0.9526(9)
C4_2 C 0.3235(4) 0.9016(4) 0.9112(8)
C5_2 C 0.3126(5) 0.8438(4) 0.8298(8)
H6_2 H 0.355031 0.823239 0.805430
C6_2 C 0.2387(5) 0.8164(4) 0.7845(8)
C7_2 C 0.1765(4) 0.8485(4) 0.8249(8)
H7_2 H 0.126769 0.831078 0.796154
C8_2 C 0.4020(5) 0.9339(4) 0.9483(9)
C9_2 C 0.2887(5) 0.7306(5) 0.6485(8)
H8_2 H 0.313133 0.766807 0.607761
H9_2 H 0.267376 0.698541 0.577557
C10_2 C 0.3495(5) 0.6951(4) 0.7529(8)
C11_2 C 0.4250(6) 0.6903(5) 0.7339(10)
H10_2 H 0.437730 0.708650 0.656696
C12_2 C 0.4807(5) 0.6585(5) 0.8289(11)
H11_2 H 0.530752 0.653951 0.814483
C13_2 C 0.4627(5) 0.6334(5) 0.9453(9)
C14_2 C 0.3874(6) 0.6361(6) 0.9625(10)
C15_2 C 0.3314(5) 0.6662(5) 0.8647(10)
H13_2 H 0.280309 0.666844 0.875161
C17_2 C 0.1478(5) 0.7394(4) 0.6395(8)
H14_2 H 0.116548 0.737651 0.707564
H15_2 H 0.149422 0.693991 0.603281
C18_2 C 0.1083(5) 0.7862(4) 0.5255(8)
C19_2 C 0.1458(5) 0.8414(5) 0.4844(9)
H16_2 H 0.195936 0.851486 0.529968
C20_2 C 0.1111(5) 0.8815(5) 0.3786(10)
H17_2 H 0.137821 0.918358 0.353745
C21_2 C 0.0363(5) 0.8679(4) 0.3077(9)
C23_2 C 0.0328(5) 0.7736(5) 0.4594(9)
H19_2 H 0.005429 0.738149 0.487879
C24_2 C 0.0022(5) 0.9077(5) 0.1842(9)
O13_2 O 0.5184(5) 0.8892(4) 0.6752(7)
O11_2 O 0.9469(3) 0.0877(3) 0.0946(7)
O7_2 O 0.9534(4) 0.8798(4) 0.0914(7)
C22_2 C 0.9977(5) 0.8137(5) 0.3503(10)
H18_2 H 0.947346 0.803869 0.305216
Co4 Co 0.95001(6) 0.94681(5) 0.93594(12)
N2_2 N 0.3743(4) 0.1365(4) 0.0537(8)
C33_3 C 0.3958(6) 0.2007(6) 0.0605(15)
H26_3 H 0.445509 0.211532 0.107231
C34_3 C 0.3477(6) 0.2528(5) 0.0010(18)
H27_3 H 0.366786 0.296869 0.005805
O1_3 O 0.1317(3) 0.5061(3) 0.5125(7)
O4_3 O 0.4601(3) 0.5986(3) 0.4260(7)
O6_3 O 0.5746(5) 0.9342(5) 0.5184(8)
O9_3 O 0.4708(5) 0.4801(4) 0.2562(10)
H1_3 H 0.490(9) 0.452(5) 0.212(12)
H2_3 H 0.460(9) 0.466(6) 0.327(9)
O10_3 O 0.6379(4) 0.5100(4) 0.2549(7)
H3_3 H 0.624(8) 0.524(4) 0.177(4)
H4_3 H 0.633(8) 0.4691(14) 0.265(9)
N1_3 N 0.1219(4) 0.3916(3) 0.7196(7)
N3_3 N 0.2255(4) 0.7410(4) 0.2042(8)
C1_3 C 0.1190(5) 0.5600(4) 0.4436(9)
C2_3 C 0.1875(4) 0.5941(4) 0.4071(8)
C3_3 C 0.2623(5) 0.5674(4) 0.4526(9)
H5_3 H 0.270427 0.529781 0.509259
C4_3 C 0.3235(4) 0.5984(4) 0.4112(8)
C5_3 C 0.3126(5) 0.6562(4) 0.3298(8)
H6_3 H 0.355031 0.676761 0.305430
C6_3 C 0.2387(5) 0.6836(4) 0.2845(8)
C7_3 C 0.1765(4) 0.6515(4) 0.3249(8)
H7_3 H 0.126769 0.668922 0.296154
C8_3 C 0.4020(5) 0.5661(4) 0.4483(9)
C9_3 C 0.2887(5) 0.7694(5) 0.1485(8)
H8_3 H 0.313133 0.733193 0.107761
H9_3 H 0.267376 0.801459 0.077557
C10_3 C 0.3495(5) 0.8049(4) 0.2529(8)
C11_3 C 0.4250(6) 0.8097(5) 0.2339(10)
H10_3 H 0.437730 0.791350 0.156696
C12_3 C 0.4807(5) 0.8415(5) 0.3289(11)
H11_3 H 0.530752 0.846049 0.314483
C13_3 C 0.4627(5) 0.8666(5) 0.4453(9)
C14_3 C 0.3874(6) 0.8639(6) 0.4625(10)
H12_3 H 0.374541 0.882327 0.539541
C15_3 C 0.3314(5) 0.8338(5) 0.3647(10)
H13_3 H 0.280309 0.833156 0.375161
C16_3 C 0.5239(5) 0.8999(5) 0.5551(10)
C17_3 C 0.1478(5) 0.7606(4) 0.1395(8)
H14_3 H 0.116548 0.762349 0.207564
H15_3 H 0.149422 0.806009 0.103281
C18_3 C 0.1083(5) 0.7138(4) 0.0255(8)
H16_3 H 0.195936 0.648514 0.029968
C25_3 C 0.0951(6) 0.3416(5) 0.7834(12)
H20_3 H 0.041954 0.338788 0.777679
C26_3 C 0.1424(6) 0.2932(5) 0.8585(11)
H21_3 H 0.120843 0.258954 0.902030
C27_3 C 0.2206(5) 0.2956(5) 0.8686(11)
C28_3 C 0.2495(5) 0.3511(6) 0.8087(13)
H22_3 H 0.302541 0.356185 0.815268
C29_3 C 0.1983(6) 0.3979(6) 0.7399(14)
H23_3 H 0.218297 0.436150 0.705729
C30_3 C 0.2748(5) 0.2413(5) 0.9371(11)
C31_3 C 0.2513(6) 0.1739(6) 0.9333(16)
H24_3 H 0.200929 0.162161 0.891635
C32_3 C 0.3027(7) 0.1246(5) 0.9912(15)
H25_3 H 0.285624 0.079857 0.985679
O15_2 O 0.0282(5) 0.5332(4) 0.6776(7)
N4_2 N 0.6257(4) 0.6365(4) 0.4463(8)
C19_3 C 0.1458(5) 0.6586(5) 0.9844(9)
C20_3 C 0.1111(5) 0.6185(5) 0.8786(10)
H17_3 H 0.137821 0.581642 0.853745
C21_3 C 0.0363(5) 0.6321(4) 0.8077(9)
C23_3 C 0.0328(5) 0.7264(5) 0.9594(9)
H19_3 H 0.005429 0.761851 0.987879
C24_3 C 0.0022(5) 0.5923(5) 0.6842(9)
C22_3 C 0.9977(5) 0.6863(5) 0.8503(10)
H18_3 H 0.947346 0.696131 0.805216
C22_4 C 0.0023(5) 0.1863(5) 0.6497(10)
H18_4 H 0.052654 0.196131 0.694784
O4_4 O 0.5399(3) 0.0986(3) 0.0740(7)
O8_2 O 0.9718(5) 0.0332(4) 0.8224(7)
O10_4 O 0.3621(4) 0.0100(4) 0.2451(7)
H3_4 H 0.376(8) 0.024(4) 0.323(4)
N3_4 N 0.7745(4) 0.2410(4) 0.2958(8)
C1_4 C 0.8810(5) 0.0600(4) 0.0564(9)
C2_4 C 0.8125(4) 0.0941(4) 0.0929(8)
C3_4 C 0.7377(5) 0.0674(4) 0.0474(9)
C4_4 C 0.6765(4) 0.0984(4) 0.0888(8)
C5_4 C 0.6874(5) 0.1562(4) 0.1702(8)
H6_4 H 0.644969 0.176761 0.194570
C6_4 C 0.7613(5) 0.1836(4) 0.2155(8)
C7_4 C 0.8235(4) 0.1515(4) 0.1751(8)
H7_4 H 0.873231 0.168922 0.203846
C8_4 C 0.5980(5) 0.0661(4) 0.0517(9)
C9_4 C 0.7113(5) 0.2694(5) 0.3515(8)
H8_4 H 0.686867 0.233193 0.392239
H9_4 H 0.732624 0.301459 0.422443
C10_4 C 0.6505(5) 0.3049(4) 0.2471(8)
C11_4 C 0.5750(6) 0.3097(5) 0.2661(10)
H10_4 H 0.562270 0.291350 0.343304
C12_4 C 0.5193(5) 0.3415(5) 0.1711(11)
H11_4 H 0.469248 0.346049 0.185517
C13_4 C 0.5373(5) 0.3666(5) 0.0547(9)
C14_4 C 0.6126(6) 0.3639(6) 0.0375(10)
C15_4 C 0.6686(5) 0.3338(5) 0.1353(10)
H13_4 H 0.719691 0.333156 0.124839
C17_4 C 0.8522(5) 0.2606(4) 0.3605(8)
H14_4 H 0.883452 0.262349 0.292436
H15_4 H 0.850578 0.306009 0.396719
C18_4 C 0.8917(5) 0.2138(4) 0.4745(8)
C19_4 C 0.8542(5) 0.1586(5) 0.5156(9)
H16_4 H 0.804064 0.148514 0.470032
C20_4 C 0.8889(5) 0.1185(5) 0.6214(10)
H17_4 H 0.862179 0.081642 0.646255
C21_4 C 0.9637(5) 0.1321(4) 0.6923(9)
C23_4 C 0.9672(5) 0.2264(5) 0.5406(9)
H19_4 H 0.994571 0.261851 0.512121
C24_4 C 0.9978(5) 0.0923(5) 0.8158(9)
O1_4 O 0.8683(3) 0.0061(3) 0.9875(7)
O6_4 O 0.4254(5) 0.4342(5) 0.9816(8)
H5_4 H 0.729573 0.029781 0.990741
H12_4 H 0.625459 0.382327 0.960459
C16_4 C 0.4761(5) 0.3999(5) 0.9449(10)
O9_4 O 0.5292(5) 0.9801(4) 0.2438(10)
H1_4 H 0.510(9) 0.952(5) 0.288(12)
H2_4 H 0.540(9) 0.966(6) 0.173(9)
H4_4 H 0.367(8) 0.9691(14) 0.235(9)
N1_4 N 0.8781(4) 0.8916(3) 0.7804(7)
C25_4 C 0.9049(6) 0.8416(5) 0.7166(12)
H20_4 H 0.958046 0.838788 0.722321
C26_4 C 0.8576(6) 0.7932(5) 0.6415(11)
H21_4 H 0.879157 0.758954 0.597970
C27_4 C 0.7794(5) 0.7956(5) 0.6314(11)
C28_4 C 0.7505(5) 0.8511(6) 0.6913(13)
H22_4 H 0.697459 0.856185 0.684732
C29_4 C 0.8017(6) 0.8979(6) 0.7601(14)
H23_4 H 0.781703 0.936150 0.794271
C30_4 C 0.7252(5) 0.7413(5) 0.5629(11)
C31_4 C 0.7487(6) 0.6739(6) 0.5667(16)
H24_4 H 0.799071 0.662161 0.608365
C32_4 C 0.6973(7) 0.6246(5) 0.5088(15)
H25_4 H 0.714376 0.579857 0.514321
C33_4 C 0.6042(6) 0.7007(6) 0.4395(15)
H26_4 H 0.554491 0.711532 0.392769
C34_4 C 0.6523(6) 0.7528(5) 0.4990(18)
H27_4 H 0.633214 0.796869 0.494195
loop_
_geom_bond_atom_site_label_1
_geom_bond_atom_site_label_2
_geom_bond_site_symmetry_1
_geom_bond_site_symmetry_2
H18 C22 1_555 1_555
Co5 O7 1_555 1_555
O8 C24 1_555 1_555
C20 C19 1_555 1_555
H17 C20 1_555 1_555
C21 C20 1_555 1_555
H19 C23 1_555 1_555
C24 C21 1_555 1_555
Co3 O8 1_555 1_555
Co3 O1 1_555 1_555
Co2 O4 1_555 1_555
O1 C1 1_555 1_555
O2 C1 1_555 1_555
O3 C8 1_555 1_555
O4 C8 1_555 1_555
O5 C16 1_555 1_555
O6 C16 1_555 1_555
O9 Co2 1_555 1_555
H1 O9 1_555 1_555
H2 O9 1_555 1_555
O10 Co2 1_555 1_555
H3 O10 1_555 1_555
H4 O10 1_555 1_555
N1 Co3 1_555 1_555
N3 C6 1_555 1_555
C1 C2 1_555 1_555
C2 C3 1_555 1_555
C3 H5 1_555 1_555
C4 C3 1_555 1_555
C5 C4 1_555 1_555
H6 C5 1_555 1_555
C6 C5 1_555 1_555
C7 C2 1_555 1_555
H7 C7 1_555 1_555
C8 C4 1_555 1_555
C9 N3 1_555 1_555
H8 C9 1_555 1_555
H9 C9 1_555 1_555
C10 C9 1_555 1_555
C11 C10 1_555 1_555
H10 C11 1_555 1_555
C12 C11 1_555 1_555
H11 C12 1_555 1_555
C13 C12 1_555 1_555
C14 C13 1_555 1_555
H12 C14 1_555 1_555
C15 C10 1_555 1_555
H13 C15 1_555 1_555
C16 C13 1_555 1_555
C17 N3 1_555 1_555
H14 C17 1_555 1_555
H15 C17 1_555 1_555
C18 C17 1_555 1_555
C25 N1 1_555 1_555
H20 C25 1_555 1_555
C26 C25 1_555 1_555
H21 C26 1_555 1_555
C27 C26 1_555 1_555
C28 C27 1_555 1_555
H22 C28 1_555 1_555
C29 N1 1_555 1_555
H23 C29 1_555 1_555
C30 C27 1_555 1_555
C31 C30 1_555 1_555
H24 C31 1_555 1_555
C32 C31 1_555 1_555
H25 C32 1_555 1_555
Co7 O3 1_555 1_555
Co8 O5 1_555 1_555
O12 Co2 1_555 1_555
O13 Co2 1_555 1_555
O14 Co3 1_555 1_555
N4 Co2 1_555 1_555
C6 C7 1_555 1_555
C14 C15 1_555 1_555
C28 C29 1_555 1_555
C33 N2 1_555 1_555
H26 C33 1_555 1_555
H27 C34 1_555 1_555
Co6 N2 1_555 1_555
C33 C34 1_555 1_555
N1_2 Co1 1_555 1_555
N4 C32_2 1_555 1_555
C25_2 N1_2 1_555 1_555
H20_2 C25_2 1_555 1_555
C26_2 C25_2 1_555 1_555
H21_2 C26_2 1_555 1_555
C27_2 C26_2 1_555 1_555
C28_2 C27_2 1_555 1_555
H22_2 C28_2 1_555 1_555
C29_2 N1_2 1_555 1_555
H23_2 C29_2 1_555 1_555
C30_2 C27_2 1_555 1_555
C31_2 C30_2 1_555 1_555
H24_2 C31_2 1_555 1_555
C32_2 C31_2 1_555 1_555
H25_2 C32_2 1_555 1_555
C33_2 N4 1_555 1_555
H26_2 C33_2 1_555 1_555
C34_2 C30_2 1_555 1_555
H27_2 C34_2 1_555 1_555
C28_2 C29_2 1_555 1_555
C33_2 C34_2 1_555 1_555
H1_2 O9_2 1_555 1_555
H2_2 O9_2 1_555 1_555
O5_2 C16_2 1_555 1_555
O6_2 C16_2 1_555 1_555
Co7 O5_2 1_555 1_555
Co6 O4_2 1_555 1_555
O2_2 C1_2 1_555 1_555
O3_2 C8_2 1_555 1_555
O4_2 C8_2 1_555 1_555
O15 C24_2 1_555 1_555
O10_2 Co6 1_555 1_555
H3_2 O10_2 1_555 1_555
N3_2 C6_2 1_555 1_555
C1_2 C2_2 1_555 1_555
C2_2 C3_2 1_555 1_555
C4_2 C3_2 1_555 1_555
C5_2 C4_2 1_555 1_555
H6_2 C5_2 1_555 1_555
C6_2 C5_2 1_555 1_555
C7_2 C2_2 1_555 1_555
H7_2 C7_2 1_555 1_555
C8_2 C4_2 1_555 1_555
C9_2 N3_2 1_555 1_555
H8_2 C9_2 1_555 1_555
H9_2 C9_2 1_555 1_555
C10_2 C9_2 1_555 1_555
C11_2 C10_2 1_555 1_555
H10_2 C11_2 1_555 1_555
C12_2 C11_2 1_555 1_555
H11_2 C12_2 1_555 1_555
C13_2 C12_2 1_555 1_555
C14_2 C13_2 1_555 1_555
C15_2 C10_2 1_555 1_555
H13_2 C15_2 1_555 1_555
C17_2 N3_2 1_555 1_555
H14_2 C17_2 1_555 1_555
H15_2 C17_2 1_555 1_555
C18_2 C17_2 1_555 1_555
C19_2 C18_2 1_555 1_555
H16_2 C19_2 1_555 1_555
C20_2 C19_2 1_555 1_555
H17_2 C20_2 1_555 1_555
C21_2 C20_2 1_555 1_555
C23_2 C18_2 1_555 1_555
H19_2 C23_2 1_555 1_555
C24_2 C21_2 1_555 1_555
O13_2 Co6 1_555 1_555
C6_2 C7_2 1_555 1_555
C14_2 C15_2 1_555 1_555
H18_2 C22_2 1_555 1_555
C33_3 N2_2 1_555 1_555
H26_3 C33_3 1_555 1_555
H27_3 C34_3 1_555 1_555
Co8 N2_2 1_555 1_555
C33_3 C34_3 1_555 1_555
Co5 O1_3 1_555 1_555
Co7 O4_3 1_555 1_555
O1_3 C1_3 1_555 1_555
O11 C1_3 1_555 1_555
O12 C8_3 1_555 1_555
O4_3 C8_3 1_555 1_555
O13_2 C16_3 1_555 1_555
O6_3 C16_3 1_555 1_555
O9_3 Co7 1_555 1_555
H1_3 O9_3 1_555 1_555
H2_3 O9_3 1_555 1_555
O10_3 Co7 1_555 1_555
H3_3 O10_3 1_555 1_555
H4_3 O10_3 1_555 1_555
N1_3 Co5 1_555 1_555
N3_3 C6_3 1_555 1_555
C1_3 C2_3 1_555 1_555
C2_3 C3_3 1_555 1_555
C3_3 H5_3 1_555 1_555
C4_3 C3_3 1_555 1_555
C5_3 C4_3 1_555 1_555
H6_3 C5_3 1_555 1_555
C6_3 C5_3 1_555 1_555
C7_3 C2_3 1_555 1_555
H7_3 C7_3 1_555 1_555
C8_3 C4_3 1_555 1_555
C9_3 N3_3 1_555 1_555
H8_3 C9_3 1_555 1_555
H9_3 C9_3 1_555 1_555
C10_3 C9_3 1_555 1_555
C11_3 C10_3 1_555 1_555
H10_3 C11_3 1_555 1_555
C12_3 C11_3 1_555 1_555
H11_3 C12_3 1_555 1_555
C13_3 C12_3 1_555 1_555
C14_3 C13_3 1_555 1_555
H12_3 C14_3 1_555 1_555
C15_3 C10_3 1_555 1_555
H13_3 C15_3 1_555 1_555
C16_3 C13_3 1_555 1_555
C17_3 N3_3 1_555 1_555
H14_3 C17_3 1_555 1_555
H15_3 C17_3 1_555 1_555
C18_3 C17_3 1_555 1_555
C25_3 N1_3 1_555 1_555
H20_3 C25_3 1_555 1_555
C26_3 C25_3 1_555 1_555
H21_3 C26_3 1_555 1_555
C27_3 C26_3 1_555 1_555
C28_3 C27_3 1_555 1_555
H22_3 C28_3 1_555 1_555
C29_3 N1_3 1_555 1_555
H23_3 C29_3 1_555 1_555
C30_3 C27_3 1_555 1_555
C31_3 C30_3 1_555 1_555
H24_3 C31_3 1_555 1_555
C32_3 C31_3 1_555 1_555
H25_3 C32_3 1_555 1_555
O15_2 Co5 1_555 1_555
N4_2 Co7 1_555 1_555
C6_3 C7_3 1_555 1_555
C14_3 C15_3 1_555 1_555
C28_3 C29_3 1_555 1_555
O15_2 C24_3 1_555 1_555
C20_3 C19_3 1_555 1_555
H17_3 C20_3 1_555 1_555
C21_3 C20_3 1_555 1_555
H19_3 C23_3 1_555 1_555
C24_3 C21_3 1_555 1_555
H18_3 C22_3 1_555 1_555
H18_4 C22_4 1_555 1_555
Co8 O4_4 1_555 1_555
O11_2 C1_4 1_555 1_555
O12_2 C8_4 1_555 1_555
O4_4 C8_4 1_555 1_555
O8_2 C24_4 1_555 1_555
O10_4 Co8 1_555 1_555
H3_4 O10_4 1_555 1_555
N3_4 C6_4 1_555 1_555
C1_4 C2_4 1_555 1_555
C2_4 C3_4 1_555 1_555
C4_4 C3_4 1_555 1_555
C5_4 C4_4 1_555 1_555
H6_4 C5_4 1_555 1_555
C6_4 C5_4 1_555 1_555
C7_4 C2_4 1_555 1_555
H7_4 C7_4 1_555 1_555
C8_4 C4_4 1_555 1_555
C9_4 N3_4 1_555 1_555
H8_4 C9_4 1_555 1_555
H9_4 C9_4 1_555 1_555
C10_4 C9_4 1_555 1_555
C11_4 C10_4 1_555 1_555
H10_4 C11_4 1_555 1_555
C12_4 C11_4 1_555 1_555
H11_4 C12_4 1_555 1_555
C13_4 C12_4 1_555 1_555
C14_4 C13_4 1_555 1_555
C15_4 C10_4 1_555 1_555
H13_4 C15_4 1_555 1_555
C17_4 N3_4 1_555 1_555
H14_4 C17_4 1_555 1_555
H15_4 C17_4 1_555 1_555
C18_4 C17_4 1_555 1_555
C19_4 C18_4 1_555 1_555
H16_4 C19_4 1_555 1_555
C20_4 C19_4 1_555 1_555
H17_4 C20_4 1_555 1_555
C21_4 C20_4 1_555 1_555
C23_4 C18_4 1_555 1_555
H19_4 C23_4 1_555 1_555
C24_4 C21_4 1_555 1_555
C6_4 C7_4 1_555 1_555
C14_4 C15_4 1_555 1_555
O13 C16_4 1_555 1_555
O6_4 C16_4 1_555 1_555
H1_4 O9_4 1_555 1_555
H2_4 O9_4 1_555 1_555
N1_4 Co4 1_555 1_555
N4_2 C32_4 1_555 1_555
C25_4 N1_4 1_555 1_555
H20_4 C25_4 1_555 1_555
C26_4 C25_4 1_555 1_555
H21_4 C26_4 1_555 1_555
C27_4 C26_4 1_555 1_555
C28_4 C27_4 1_555 1_555
H22_4 C28_4 1_555 1_555
C29_4 N1_4 1_555 1_555
H23_4 C29_4 1_555 1_555
C30_4 C27_4 1_555 1_555
C31_4 C30_4 1_555 1_555
H24_4 C31_4 1_555 1_555
C32_4 C31_4 1_555 1_555
H25_4 C32_4 1_555 1_555
C33_4 N4_2 1_555 1_555
H26_4 C33_4 1_555 1_555
C34_4 C30_4 1_555 1_555
H27_4 C34_4 1_555 1_555
C28_4 C29_4 1_555 1_555
C33_4 C34_4 1_555 1_555

#END
