
###############################################################################
#
# This file contains modified crystal structure data generated from the
# MOF subset of the Cambridge Structural Database (CSD) v543 
# hosted by the Cambridge Crystallographic Data Centre (CCDC).
#
# This work is licensed under the Creative Commons
# Attribution-NonCommercial-ShareAlike 4.0 International License.
# To view a copy of this license, visit
# http://creativecommons.org/licenses/by-nc-sa/4.0/
# or send a letter to
# Creative Commons, PO Box 1866, Mountain View, CA 94042, USA.
#
# CIF created using the CSD Python API on 29 September 2022
# The structure has been converted into the P1 space group
# The structure has a 3D framework
# The original CSD entry ZEPGOT is in the triclinic crystal system
# The framework has been calculated to contain at least 10.0% void space
# The void calculation uses a probe of radius 1.32A, grid spacing 0.4
#
###############################################################################

data_ZEPGOT
_chemical_formula_moiety         '(C112 H68 N12 O28)n'
_symmetry_cell_setting           triclinic
_symmetry_space_group_name_H-M   'P 1'
_symmetry_Int_Tables_number      1
_space_group_name_Hall           'P 1'
loop_
_symmetry_equiv_pos_site_id
_symmetry_equiv_pos_as_xyz
1 x,y,z
_cell_length_a                   12.1088(4)
_cell_length_b                   16.9597(8)
_cell_length_c                   19.1362(4)
_cell_angle_alpha                111.443(4)
_cell_angle_beta                 91.846(3)
_cell_angle_gamma                95.794(3)
_cell_volume                     3628.99
loop_
_atom_site_label
_atom_site_type_symbol
_atom_site_fract_x
_atom_site_fract_y
_atom_site_fract_z
N6 N 0.0490(13) 0.2521(9) 0.4211(10)
C56 C 0.0409(18) 0.1642(12) 0.3825(13)
H34 H 0.095125 0.127389 0.368800
Cu2 Cu 0.04780(5) 0.58113(3) 0.53626(3)
O18 O 0.0928(3) 0.56875(18) 0.43557(14)
O19 O 0.1870(4) 0.5359(4) 0.5575(3)
N8 N 0.0704(14) 0.7093(4) 0.5815(4)
Cu1 Cu 0.96925(3) 0.06893(3) 0.05368(3)
N7 N 0.9103(2) 0.18167(19) 0.13322(17)
O17 O 0.8930(2) 0.08530(19) 0.96789(16)
O16 O 0.8411(2) 0.98704(17) 0.05406(18)
O1 O 0.2587(2) 0.49199(18) 0.10971(14)
O2 O 0.6467(2) 0.58893(17) 0.18808(18)
O4 O 0.0145(2) 0.43287(18) 0.37549(13)
O7 O 0.4399(2) 0.71349(19) 0.04759(17)
N1 N 0.8325(2) 0.29851(19) 0.17542(16)
C1 C 0.3562(3) 0.5446(2) 0.11341(18)
N3 N 0.8976(3) 0.2001(2) 0.20887(19)
C2 C 0.5483(3) 0.5881(2) 0.1490(2)
C3 C 0.3515(3) 0.6040(2) 0.07974(19)
H1 H 0.285051 0.609944 0.057472
C4 C 0.4527(3) 0.5348(2) 0.1480(2)
H2 H 0.453811 0.493994 0.169853
C5 C 0.5481(3) 0.6483(2) 0.1165(2)
H3 H 0.612549 0.684151 0.118642
C6 C 0.8731(3) 0.2420(2) 0.11543(19)
H4 H 0.874561 0.245385 0.068040
C7 C 0.1208(3) 0.5001(2) 0.30691(18)
C8 C 0.4500(3) 0.6544(2) 0.0805(2)
C9 C 0.0722(3) 0.5005(2) 0.37818(18)
C10 C 0.2149(3) 0.4976(2) 0.17689(18)
C11 C 0.6856(3) 0.5133(2) 0.1825(2)
C12 C 0.7818(3) 0.3719(2) 0.17832(19)
C13 C 0.6696(3) 0.4419(3) 0.1191(2)
H5 H 0.626507 0.441040 0.077627
C14 C 0.7183(3) 0.3696(2) 0.1166(2)
H6 H 0.707720 0.320314 0.073409
C15 C 0.8273(3) 0.9087(2) 0.0121(2)
C16 C 0.5372(3) 0.7599(2) 0.0392(2)
C17 C 0.8947(3) 0.0357(3) 0.9021(2)
C18 C 0.7247(3) 0.8568(2) 0.0212(2)
C19 C 0.1930(3) 0.5685(3) 0.3076(2)
H7 H 0.210422 0.615399 0.352294
O11 O 0.3194(4) 0.1763(3) 0.7492(3)
O12 O 0.5427(3) 0.3239(3) 0.6234(3)
C20 C 0.2398(3) 0.5683(2) 0.2429(2)
H8 H 0.287661 0.615034 0.243546
C21 C 0.0958(3) 0.4305(3) 0.2408(2)
H9 H 0.047130 0.384200 0.240351
C22 C 0.7971(4) 0.4444(3) 0.2420(2)
H10 H 0.840284 0.445576 0.283551
C23 C 0.7488(4) 0.5158(3) 0.2449(2)
H11 H 0.758623 0.564919 0.288247
C24 C 0.5554(3) 0.8449(3) 0.0824(3)
H12 H 0.505539 0.870279 0.117375
C25 C 0.8337(4) 0.0532(3) 0.8415(2)
C26 C 0.8508(4) 0.2700(3) 0.2323(2)
H13 H 0.832207 0.296963 0.281439
C27 C 0.1427(3) 0.4284(3) 0.1745(2)
H14 H 0.125485 0.381436 0.129814
C28 C 0.6501(4) 0.8928(3) 0.0730(3)
H15 H 0.663390 0.950711 0.102526
C29 C 0.1679(6) 0.4671(5) 0.5326(3)
O13 O 0.0932(8) 0.4057(4) 0.4954(4)
O14 O 0.6744(6) 0.0970(4) 0.6694(2)
C32 C 0.7819(4) 0.1254(3) 0.8579(3)
H18 H 0.784631 0.163398 0.907587
C33 C 0.5227(5) 0.2615(4) 0.6523(3)
C34 C 0.4256(6) 0.2497(3) 0.6860(4)
H19 H 0.368942 0.283715 0.689049
C35 C 0.7260(5) 0.1432(4) 0.8029(3)
H20 H 0.691654 0.192610 0.814535
C36 C 0.4165(7) 0.1875(4) 0.7142(3)
C37 C 0.5915(7) 0.1503(5) 0.6796(3)
C38 C 0.6055(6) 0.2137(4) 0.6499(3)
H21 H 0.671163 0.222891 0.628595
C39 C 0.4592(4) 0.3614(4) 0.6033(4)
C40 C 0.4973(9) 0.1345(4) 0.7116(3)
H22 H 0.487860 0.091041 0.730410
C41 C 0.2851(6) 0.4245(8) 0.5556(5)
C42 C 0.7221(7) 0.0856(5) 0.7298(3)
C43 C 0.2866(6) 0.3413(6) 0.5340(5)
H23 H 0.227446 0.304752 0.502869
C44 C 0.3789(8) 0.4823(5) 0.6016(5)
H24 H 0.381178 0.541016 0.614809
C45 C 0.3686(5) 0.3089(5) 0.5551(4)
H25 H 0.367362 0.249903 0.537959
C47 C 0.4668(6) 0.4472(5) 0.6257(5)
H27 H 0.527875 0.482030 0.656027
C48 C 0.2597(9) 0.0930(6) 0.7129(4)
C49 C 0.1928(10) 0.0663(6) 0.7587(4)
H28 H 0.183254 0.103331 0.807186
C50 C 0.7722(10) 0.0114(6) 0.7122(4)
C54 C 0.2639(13) 0.0446(8) 0.6397(5)
H32 H 0.303676 0.066271 0.608551
O3 O 0.8914(2) 0.87113(18) 0.96488(17)
C30 C 0.6069(4) 0.7219(3) 0.9854(3)
H16 H 0.591010 0.664681 0.954483
C31 C 0.7024(4) 0.7709(3) 0.9779(3)
H17 H 0.751954 0.744998 0.942888
O6 O 0.9446(3) 0.9691(2) 0.87952(16)
C46 C 0.8282(7) 0.9959(5) 0.7693(3)
H26 H 0.861985 0.946304 0.758327
N4 N 0.0818(12) 0.8517(5) 0.6297(6)
H29 H 0.768295 0.972637 0.662806
C51 C 0.1391(11) 0.9823(8) 0.7313(5)
H30 H 0.101159 0.960914 0.763331
C52 C 0.1429(12) 0.9315(6) 0.6562(5)
C53 C 0.2075(12) 0.9601(7) 0.6099(6)
H31 H 0.213844 0.924821 0.560249
C55 C 0.1210(11) 0.7711(7) 0.6014(6)
H33 H 0.197634 0.770750 0.599605
O6_2 O 0.0554(3) 0.0309(2) 0.12048(16)
C46_2 C 0.1718(7) 0.0041(5) 0.2307(3)
H26_2 H 0.138015 0.053696 0.241673
N4_2 N 0.9182(12) 0.1483(5) 0.3703(6)
H29_2 H 0.231705 0.027363 0.337194
C51_2 C 0.8609(11) 0.0177(8) 0.2687(5)
H30_2 H 0.898841 0.039086 0.236669
C52_2 C 0.8571(12) 0.0685(6) 0.3438(5)
C53_2 C 0.7925(12) 0.0399(7) 0.3901(6)
H31_2 H 0.786156 0.075179 0.439751
N5 N 0.9296(14) 0.2907(4) 0.4185(4)
C55_2 C 0.8790(11) 0.2289(7) 0.3986(6)
H33_2 H 0.802366 0.229250 0.400395
Cu8 Cu 0.95220(5) 0.41887(3) 0.46374(3)
O15 O 0.1086(2) 0.12887(18) 0.03512(17)
C30_2 C 0.3931(4) 0.2781(3) 0.0146(3)
H16_2 H 0.408990 0.335319 0.045517
C31_2 C 0.2976(4) 0.2291(3) 0.0221(3)
H17_2 H 0.248046 0.255002 0.057112
O1_2 O 0.7413(2) 0.50801(18) 0.89029(14)
O2_2 O 0.3533(2) 0.41107(17) 0.81192(18)
O4_2 O 0.9855(2) 0.56713(18) 0.62451(13)
O5 O 0.1589(2) 0.01296(17) 0.94594(18)
O7_2 O 0.5601(2) 0.28651(19) 0.95241(17)
O8 O 0.1070(2) 0.91470(19) 0.03211(16)
O9 O 0.9072(3) 0.43125(18) 0.56443(14)
N1_2 N 0.1675(2) 0.70149(19) 0.82458(16)
N2 N 0.0897(2) 0.81833(19) 0.86678(17)
C1_2 C 0.6438(3) 0.4554(2) 0.88659(18)
N3_2 N 0.1024(3) 0.7999(2) 0.79113(19)
C2_2 C 0.4517(3) 0.4119(2) 0.8510(2)
C3_2 C 0.6485(3) 0.3960(2) 0.92026(19)
H1_2 H 0.714949 0.390056 0.942528
C4_2 C 0.5473(3) 0.4652(2) 0.8520(2)
H2_2 H 0.546189 0.506006 0.830147
C5_2 C 0.4519(3) 0.3517(2) 0.8835(2)
H3_2 H 0.387451 0.315849 0.881358
C6_2 C 0.1269(3) 0.7580(2) 0.88457(19)
H4_2 H 0.125439 0.754615 0.931960
C7_2 C 0.8792(3) 0.4999(2) 0.69309(18)
C8_2 C 0.5500(3) 0.3456(2) 0.9195(2)
C9_2 C 0.9278(3) 0.4995(2) 0.62182(18)
C10_2 C 0.7851(3) 0.5024(2) 0.82311(18)
C11_2 C 0.3144(3) 0.4867(2) 0.8175(2)
C12_2 C 0.2182(3) 0.6281(2) 0.82168(19)
C13_2 C 0.3304(3) 0.5581(3) 0.8809(2)
H5_2 H 0.373493 0.558960 0.922373
C14_2 C 0.2817(3) 0.6304(2) 0.8834(2)
H6_2 H 0.292280 0.679686 0.926591
C15_2 C 0.1727(3) 0.0913(2) 0.9879(2)
C16_2 C 0.4628(3) 0.2401(2) 0.9608(2)
O10 O 0.8130(4) 0.4641(4) 0.4425(3)
C17_2 C 0.1053(3) 0.9643(3) 0.0979(2)
C18_2 C 0.2753(3) 0.1432(2) 0.9788(2)
C19_2 C 0.8070(3) 0.4315(3) 0.6924(2)
H7_2 H 0.789578 0.384601 0.647706
O11_2 O 0.6806(4) 0.8237(3) 0.2508(3)
O12_2 O 0.4573(3) 0.6761(3) 0.3766(3)
C20_2 C 0.7602(3) 0.4317(2) 0.7571(2)
H8_2 H 0.712339 0.384966 0.756454
C21_2 C 0.9042(3) 0.5695(3) 0.7592(2)
H9_2 H 0.952870 0.615800 0.759649
C22_2 C 0.2029(4) 0.5556(3) 0.7580(2)
H10_2 H 0.159716 0.554424 0.716449
C23_2 C 0.2512(4) 0.4842(3) 0.7551(2)
H11_2 H 0.241377 0.435081 0.711753
C24_2 C 0.4446(3) 0.1551(3) 0.9176(3)
H12_2 H 0.494461 0.129721 0.882625
C25_2 C 0.1663(4) 0.9468(3) 0.1585(2)
C26_2 C 0.1492(4) 0.7300(3) 0.7677(2)
H13_2 H 0.167793 0.703037 0.718561
C27_2 C 0.8573(3) 0.5716(3) 0.8255(2)
H14_2 H 0.874515 0.618564 0.870186
C28_2 C 0.3499(4) 0.1072(3) 0.9270(3)
H15_2 H 0.336610 0.049289 0.897474
C29_2 C 0.8321(6) 0.5329(5) 0.4674(3)
O13_2 O 0.9068(8) 0.5943(4) 0.5046(4)
O14_2 O 0.3256(6) 0.9030(4) 0.3306(2)
C32_2 C 0.2181(4) 0.8746(3) 0.1421(3)
H18_2 H 0.215369 0.836602 0.092413
C33_2 C 0.4773(5) 0.7385(4) 0.3477(3)
C34_2 C 0.5744(6) 0.7503(3) 0.3140(4)
H19_2 H 0.631058 0.716285 0.310951
C35_2 C 0.2740(5) 0.8568(4) 0.1971(3)
H20_2 H 0.308346 0.807390 0.185465
C36_2 C 0.5835(7) 0.8125(4) 0.2858(3)
C37_2 C 0.4085(7) 0.8497(5) 0.3204(3)
C38_2 C 0.3945(6) 0.7863(4) 0.3501(3)
H21_2 H 0.328837 0.777109 0.371405
C39_2 C 0.5408(4) 0.6386(4) 0.3967(4)
C40_2 C 0.5027(9) 0.8655(4) 0.2884(3)
H22_2 H 0.512140 0.908959 0.269590
C41_2 C 0.7149(6) 0.5755(8) 0.4444(5)
C42_2 C 0.2779(7) 0.9144(5) 0.2702(3)
C43_2 C 0.7134(6) 0.6587(6) 0.4660(5)
H23_2 H 0.772554 0.695248 0.497131
C44_2 C 0.6211(8) 0.5177(5) 0.3984(5)
H24_2 H 0.618822 0.458984 0.385191
C45_2 C 0.6314(5) 0.6911(5) 0.4449(4)
H25_2 H 0.632638 0.750097 0.462041
C47_2 C 0.5332(6) 0.5528(5) 0.3743(5)
H27_2 H 0.472125 0.517970 0.343973
C48_2 C 0.7403(9) 0.9070(6) 0.2871(4)
C49_2 C 0.8072(10) 0.9337(6) 0.2413(4)
H28_2 H 0.816746 0.896669 0.192814
C50_2 C 0.2278(10) 0.9886(6) 0.2878(4)
C54_2 C 0.7361(13) 0.9554(8) 0.3603(5)
H32_2 H 0.696324 0.933729 0.391449
Cu6 Cu 0.03075(3) 0.93107(3) 0.94632(3)
N6_2 N 0.9510(13) 0.7479(9) 0.5789(10)
C56_2 C 0.9591(18) 0.8358(12) 0.6175(13)
H34_2 H 0.904875 0.872611 0.631200
loop_
_geom_bond_atom_site_label_1
_geom_bond_atom_site_label_2
_geom_bond_site_symmetry_1
_geom_bond_site_symmetry_2
H34 C56 1_555 1_555
N6 C56 1_555 1_555
O18 Cu2 1_555 1_555
O19 Cu2 1_555 1_555
N8 Cu2 1_555 1_555
N7 Cu1 1_555 1_555
O1 C1 1_555 1_555
O2 C2 1_555 1_555
O4 C9 1_555 1_555
O16 C15 1_555 1_555
O7 C8 1_555 1_555
O17 C17 1_555 1_555
O18 C9 1_555 1_555
N1 C6 1_555 1_555
N7 N3 1_555 1_555
C1 C3 1_555 1_555
N3 C26 1_555 1_555
C2 C4 1_555 1_555
C3 H1 1_555 1_555
C4 C1 1_555 1_555
H2 C4 1_555 1_555
C5 C2 1_555 1_555
H3 C5 1_555 1_555
C6 N7 1_555 1_555
H4 C6 1_555 1_555
C7 C9 1_555 1_555
C8 C3 1_555 1_555
C10 O1 1_555 1_555
C11 O2 1_555 1_555
C12 N1 1_555 1_555
C13 C11 1_555 1_555
H5 C13 1_555 1_555
C14 C12 1_555 1_555
H6 C14 1_555 1_555
C15 C18 1_555 1_555
C16 O7 1_555 1_555
O19 C29 1_555 1_555
C17 C25 1_555 1_555
C18 C28 1_555 1_555
C19 C7 1_555 1_555
H7 C19 1_555 1_555
O11 C36 1_555 1_555
O12 C33 1_555 1_555
C20 C10 1_555 1_555
H8 C20 1_555 1_555
C21 C7 1_555 1_555
H9 C21 1_555 1_555
C22 C12 1_555 1_555
H10 C22 1_555 1_555
C23 C11 1_555 1_555
H11 C23 1_555 1_555
C24 C16 1_555 1_555
H12 C24 1_555 1_555
C25 C32 1_555 1_555
C26 N1 1_555 1_555
H13 C26 1_555 1_555
C27 C10 1_555 1_555
H14 C27 1_555 1_555
C28 C24 1_555 1_555
H15 C28 1_555 1_555
C29 O13 1_555 1_555
O14 C37 1_555 1_555
C32 H18 1_555 1_555
C33 C34 1_555 1_555
C34 H19 1_555 1_555
C35 C32 1_555 1_555
H20 C35 1_555 1_555
C36 C34 1_555 1_555
C37 C38 1_555 1_555
C38 C33 1_555 1_555
H21 C38 1_555 1_555
C39 O12 1_555 1_555
C40 C36 1_555 1_555
H22 C40 1_555 1_555
C41 C29 1_555 1_555
C42 O14 1_555 1_555
C43 C41 1_555 1_555
H23 C43 1_555 1_555
C44 C41 1_555 1_555
H24 C44 1_555 1_555
C45 C39 1_555 1_555
H25 C45 1_555 1_555
C47 C39 1_555 1_555
H27 C47 1_555 1_555
C48 O11 1_555 1_555
C49 C48 1_555 1_555
H28 C49 1_555 1_555
C50 C42 1_555 1_555
C54 C48 1_555 1_555
H32 C54 1_555 1_555
C5 C8 1_555 1_555
C13 C14 1_555 1_555
C19 C20 1_555 1_555
C21 C27 1_555 1_555
C22 C23 1_555 1_555
C35 C42 1_555 1_555
C37 C40 1_555 1_555
C43 C45 1_555 1_555
C44 C47 1_555 1_555
H16 C30 1_555 1_555
H17 C31 1_555 1_555
C30 C31 1_555 1_555
H26 C46 1_555 1_555
N4 C52 1_555 1_555
H30 C51 1_555 1_555
C52 C51 1_555 1_555
C53 C52 1_555 1_555
H31 C53 1_555 1_555
N8 C55 1_555 1_555
C55 N4 1_555 1_555
H33 C55 1_555 1_555
H26_2 C46_2 1_555 1_555
N4_2 C52_2 1_555 1_555
H30_2 C51_2 1_555 1_555
C52_2 C51_2 1_555 1_555
C53_2 C52_2 1_555 1_555
H31_2 C53_2 1_555 1_555
N5 C55_2 1_555 1_555
C55_2 N4_2 1_555 1_555
H33_2 C55_2 1_555 1_555
Cu8 N5 1_555 1_555
H16_2 C30_2 1_555 1_555
H17_2 C31_2 1_555 1_555
C30_2 C31_2 1_555 1_555
O1_2 C1_2 1_555 1_555
O2_2 C2_2 1_555 1_555
O4_2 C9_2 1_555 1_555
O5 C15_2 1_555 1_555
O7_2 C8_2 1_555 1_555
O8 C17_2 1_555 1_555
O9 C9_2 1_555 1_555
N1_2 C6_2 1_555 1_555
N2 N3_2 1_555 1_555
C1_2 C3_2 1_555 1_555
N3_2 C26_2 1_555 1_555
C2_2 C4_2 1_555 1_555
C3_2 H1_2 1_555 1_555
C4_2 C1_2 1_555 1_555
H2_2 C4_2 1_555 1_555
C5_2 C2_2 1_555 1_555
H3_2 C5_2 1_555 1_555
C6_2 N2 1_555 1_555
H4_2 C6_2 1_555 1_555
C7_2 C9_2 1_555 1_555
C8_2 C3_2 1_555 1_555
C10_2 O1_2 1_555 1_555
C11_2 O2_2 1_555 1_555
C12_2 N1_2 1_555 1_555
C13_2 C11_2 1_555 1_555
H5_2 C13_2 1_555 1_555
C14_2 C12_2 1_555 1_555
H6_2 C14_2 1_555 1_555
C15_2 C18_2 1_555 1_555
C16_2 O7_2 1_555 1_555
O10 C29_2 1_555 1_555
C17_2 C25_2 1_555 1_555
C18_2 C28_2 1_555 1_555
C19_2 C7_2 1_555 1_555
H7_2 C19_2 1_555 1_555
O11_2 C36_2 1_555 1_555
O12_2 C33_2 1_555 1_555
C20_2 C10_2 1_555 1_555
H8_2 C20_2 1_555 1_555
C21_2 C7_2 1_555 1_555
H9_2 C21_2 1_555 1_555
C22_2 C12_2 1_555 1_555
H10_2 C22_2 1_555 1_555
C23_2 C11_2 1_555 1_555
H11_2 C23_2 1_555 1_555
C24_2 C16_2 1_555 1_555
H12_2 C24_2 1_555 1_555
C25_2 C32_2 1_555 1_555
C26_2 N1_2 1_555 1_555
H13_2 C26_2 1_555 1_555
C27_2 C10_2 1_555 1_555
H14_2 C27_2 1_555 1_555
C28_2 C24_2 1_555 1_555
H15_2 C28_2 1_555 1_555
C29_2 O13_2 1_555 1_555
O14_2 C37_2 1_555 1_555
C32_2 H18_2 1_555 1_555
C33_2 C34_2 1_555 1_555
C34_2 H19_2 1_555 1_555
C35_2 C32_2 1_555 1_555
H20_2 C35_2 1_555 1_555
C36_2 C34_2 1_555 1_555
C37_2 C38_2 1_555 1_555
C38_2 C33_2 1_555 1_555
H21_2 C38_2 1_555 1_555
C39_2 O12_2 1_555 1_555
C40_2 C36_2 1_555 1_555
H22_2 C40_2 1_555 1_555
C41_2 C29_2 1_555 1_555
C42_2 O14_2 1_555 1_555
C43_2 C41_2 1_555 1_555
H23_2 C43_2 1_555 1_555
C44_2 C41_2 1_555 1_555
H24_2 C44_2 1_555 1_555
C45_2 C39_2 1_555 1_555
H25_2 C45_2 1_555 1_555
C47_2 C39_2 1_555 1_555
H27_2 C47_2 1_555 1_555
C48_2 O11_2 1_555 1_555
C49_2 C48_2 1_555 1_555
H28_2 C49_2 1_555 1_555
C50_2 C42_2 1_555 1_555
C54_2 C48_2 1_555 1_555
H32_2 C54_2 1_555 1_555
Cu6 N2 1_555 1_555
O9 Cu8 1_555 1_555
C5_2 C8_2 1_555 1_555
C13_2 C14_2 1_555 1_555
O10 Cu8 1_555 1_555
C19_2 C20_2 1_555 1_555
C21_2 C27_2 1_555 1_555
C22_2 C23_2 1_555 1_555
C35_2 C42_2 1_555 1_555
C37_2 C40_2 1_555 1_555
C43_2 C45_2 1_555 1_555
C44_2 C47_2 1_555 1_555
H34_2 C56_2 1_555 1_555
N6_2 C56_2 1_555 1_555

#END
