
###############################################################################
#
# This file contains modified crystal structure data generated from the
# MOF subset of the Cambridge Structural Database (CSD) v543 
# hosted by the Cambridge Crystallographic Data Centre (CCDC).
#
# This work is licensed under the Creative Commons
# Attribution-NonCommercial-ShareAlike 4.0 International License.
# To view a copy of this license, visit
# http://creativecommons.org/licenses/by-nc-sa/4.0/
# or send a letter to
# Creative Commons, PO Box 1866, Mountain View, CA 94042, USA.
#
# CIF created using the CSD Python API on 29 September 2022
# The structure has been converted into the P1 space group
# The structure has a 3D framework
# The original CSD entry ZEQGUA is in the triclinic crystal system
# The framework has been calculated to contain at least 10.0% void space
# The void calculation uses a probe of radius 1.32A, grid spacing 0.4
#
###############################################################################

data_ZEQGUA
_chemical_formula_moiety         '(C24 H12 Au4 Fe2 N10)n'
_symmetry_cell_setting           triclinic
_symmetry_space_group_name_H-M   'P 1'
_symmetry_Int_Tables_number      1
_space_group_name_Hall           'P 1'
loop_
_symmetry_equiv_pos_site_id
_symmetry_equiv_pos_as_xyz
1 x,y,z
_cell_length_a                   9.4548(9)
_cell_length_b                   10.4730(9)
_cell_length_c                   10.4975(12)
_cell_angle_alpha                83.369(9)
_cell_angle_beta                 85.076(9)
_cell_angle_gamma                80.288(8)
_cell_volume                     1015.37
loop_
_atom_site_label
_atom_site_type_symbol
_atom_site_fract_x
_atom_site_fract_y
_atom_site_fract_z
Fe5 Fe 0.1696(2) 0.1749(2) 0.75066(17)
Au1 Au 0.15637(8) 0.67719(7) 0.75445(7)
N3 N 0.1956(14) 0.9685(14) 0.7501(12)
N4 N 0.1422(14) 0.3818(16) 0.7527(15)
C9 C 0.183(2) 0.8648(15) 0.7527(16)
C10 C 0.142(2) 0.491(2) 0.7564(16)
N7 N 0.0683(13) 0.8205(17) 0.2203(14)
N8 N 0.8044(14) 0.0315(14) 0.2499(12)
N5 N 0.8187(15) 0.8457(15) 0.0464(12)
Fe3 Fe 0.8304(2) 0.8251(2) 0.24934(17)
Au2 Au 0.83428(7) 0.82028(7) 0.75032(6)
N1 N 0.5910(14) 0.8355(13) 0.2747(13)
N6 N 0.8389(15) 0.8032(15) 0.4557(13)
C1 C 0.5207(18) 0.8151(19) 0.1833(17)
H1 H 0.5719 0.7990 0.1056
C2 C 0.3670(17) 0.8151(17) 0.1907(17)
C3 C 0.2936(18) 0.8444(18) 0.3085(14)
C4 C 0.3692(19) 0.869(2) 0.4069(18)
H2 H 0.3220 0.8896 0.4851
C5 C 0.5163(19) 0.8624(19) 0.3877(17)
H3 H 0.5669 0.8771 0.4553
C6 C 0.2880(19) 0.791(2) 0.0940(18)
H4 H 0.3335 0.7731 0.0145
C7 C 0.1462(19) 0.794(2) 0.114(2)
H5 H 0.0980 0.7763 0.0467
C8 C 0.1440(17) 0.8440(17) 0.3190(15)
H6 H 0.0937 0.8605 0.3970
C11 C 0.8218(17) 0.8369(18) 0.9355(16)
C12 C 0.8401(18) 0.8078(18) 0.5632(16)
N9 N 0.8578(14) 0.6182(16) 0.2473(15)
Au2_2 Au 0.16572(7) 0.17972(7) 0.24968(6)
N1_2 N 0.4090(14) 0.1645(13) 0.7253(13)
N2 N 0.9317(13) 0.1795(17) 0.7797(14)
N6_2 N 0.1611(15) 0.1968(15) 0.5443(13)
C1_2 C 0.4793(18) 0.1849(19) 0.8167(17)
H1_2 H 0.4281 0.2010 0.8944
C2_2 C 0.6330(17) 0.1849(17) 0.8093(17)
C3_2 C 0.7064(18) 0.1556(18) 0.6915(14)
C4_2 C 0.6308(19) 0.131(2) 0.5931(18)
H2_2 H 0.6780 0.1104 0.5149
C5_2 C 0.4837(19) 0.1376(19) 0.6123(17)
H3_2 H 0.4331 0.1229 0.5447
C6_2 C 0.7120(19) 0.209(2) 0.9060(18)
H4_2 H 0.6665 0.2269 0.9855
C7_2 C 0.8538(19) 0.206(2) 0.886(2)
H5_2 H 0.9020 0.2237 0.9533
C8_2 C 0.8560(17) 0.1560(17) 0.6810(15)
H6_2 H 0.9063 0.1395 0.6030
C11_2 C 0.1782(17) 0.1631(18) 0.0645(16)
C12_2 C 0.1599(18) 0.1922(18) 0.4368(16)
N10 N 0.1813(15) 0.1543(15) 0.9536(12)
Au1_2 Au 0.84363(8) 0.32281(7) 0.24555(7)
C9_2 C 0.817(2) 0.1352(15) 0.2473(16)
C10_2 C 0.858(2) 0.509(2) 0.2436(16)
loop_
_geom_bond_atom_site_label_1
_geom_bond_atom_site_label_2
_geom_bond_site_symmetry_1
_geom_bond_site_symmetry_2
N3 C9 1_555 1_555
N4 C10 1_555 1_555
C9 Au1 1_555 1_555
C10 Au1 1_555 1_555
Fe5 N4 1_555 1_555
Fe3 N5 1_555 1_555
Au2 C11 1_555 1_555
Fe3 N1 1_555 1_555
N1 C1 1_555 1_555
N7 C7 1_555 1_555
N6 Fe3 1_555 1_555
C1 H1 1_555 1_555
C2 C1 1_555 1_555
C3 C2 1_555 1_555
C4 C3 1_555 1_555
H2 C4 1_555 1_555
C5 N1 1_555 1_555
H3 C5 1_555 1_555
C6 C2 1_555 1_555
H4 C6 1_555 1_555
C7 C6 1_555 1_555
H5 C7 1_555 1_555
C8 N7 1_555 1_555
H6 C8 1_555 1_555
C12 Au2 1_555 1_555
N9 Fe3 1_555 1_555
N6 C12 1_555 1_555
C3 C8 1_555 1_555
C4 C5 1_555 1_555
Au2_2 C11_2 1_555 1_555
Fe5 N1_2 1_555 1_555
N1_2 C1_2 1_555 1_555
N2 C7_2 1_555 1_555
N6_2 Fe5 1_555 1_555
C1_2 H1_2 1_555 1_555
C2_2 C1_2 1_555 1_555
C3_2 C2_2 1_555 1_555
C4_2 C3_2 1_555 1_555
H2_2 C4_2 1_555 1_555
C5_2 N1_2 1_555 1_555
H3_2 C5_2 1_555 1_555
C6_2 C2_2 1_555 1_555
H4_2 C6_2 1_555 1_555
C7_2 C6_2 1_555 1_555
H5_2 C7_2 1_555 1_555
C8_2 N2 1_555 1_555
H6_2 C8_2 1_555 1_555
C12_2 Au2_2 1_555 1_555
N10 Fe5 1_555 1_555
N6_2 C12_2 1_555 1_555
C3_2 C8_2 1_555 1_555
C4_2 C5_2 1_555 1_555
N8 C9_2 1_555 1_555
N9 C10_2 1_555 1_555
C9_2 Au1_2 1_555 1_555
C10_2 Au1_2 1_555 1_555

#END
