
###############################################################################
#
# This file contains modified crystal structure data generated from the
# MOF subset of the Cambridge Structural Database (CSD) v543 
# hosted by the Cambridge Crystallographic Data Centre (CCDC).
#
# This work is licensed under the Creative Commons
# Attribution-NonCommercial-ShareAlike 4.0 International License.
# To view a copy of this license, visit
# http://creativecommons.org/licenses/by-nc-sa/4.0/
# or send a letter to
# Creative Commons, PO Box 1866, Mountain View, CA 94042, USA.
#
# CIF created using the CSD Python API on 29 September 2022
# The structure has been converted into the P1 space group
# The structure has a 3D framework
# The original CSD entry ZEQYON is in the cubic crystal system
# The framework has been calculated to contain at least 10.0% void space
# The void calculation uses a probe of radius 1.32A, grid spacing 0.4
#
###############################################################################

data_ZEQYON
_chemical_formula_moiety         '(C72 H48 N72 O48 Zn6)n'
_symmetry_cell_setting           triclinic
_symmetry_space_group_name_H-M   'P 1'
_symmetry_Int_Tables_number      1
_space_group_name_Hall           'P 1'
loop_
_symmetry_equiv_pos_site_id
_symmetry_equiv_pos_as_xyz
1 x,y,z
_cell_length_a                   17.3272
_cell_length_b                   17.3272
_cell_length_c                   17.3272
_cell_angle_alpha                90
_cell_angle_beta                 90
_cell_angle_gamma                90
_cell_volume                     5202.18
loop_
_atom_site_label
_atom_site_type_symbol
_atom_site_fract_x
_atom_site_fract_y
_atom_site_fract_z
Zn3 Zn 0.50000 -0.00000 0.74707
Zn1 Zn 0.50000 0.74707 -0.00000
C3 C 0.33191 0.71894 0.02441
H2 H 0.32731 0.76650 0.04843
C6 C 0.28106 0.66809 0.02441
H4 H 0.23350 0.67269 0.04843
N7 N 0.51631 0.80143 0.10672
Zn2 Zn 0.25293 0.50000 -0.00000
N8 N 0.60558 0.69414 0.01553
C1 C 0.43516 0.78012 0.83575
H1 H 0.40655 0.73496 0.83445
N1 N 0.48369 0.80143 0.89328
O1 O 0.58668 0.98164 0.88758
Zn1_2 Zn 0.50000 0.74707 1.00000
C2 C 0.50932 0.86936 0.86936
N2 N 0.56407 0.91565 0.91565
N3 N 0.39442 0.69414 0.98447
O2 O 0.39430 0.51181 0.89663
C4 C 0.37410 0.62590 0.96095
N4 N 0.42023 0.57977 0.91679
C5 C 0.43516 0.83575 0.78012
H3 H 0.40655 0.83445 0.73496
N5 N 0.48369 0.89328 0.80143
O3 O 0.58668 0.88758 0.98164
N6 N 0.30586 0.60558 0.98447
O4 O 0.48819 0.60570 0.89663
Zn2_2 Zn 0.25293 0.50000 1.00000
Zn3_2 Zn 0.50000 1.00000 0.74707
Zn1_3 Zn 0.50000 0.25293 -0.00000
C3_2 C 0.66809 0.28106 0.02441
H2_2 H 0.67269 0.23350 0.04843
C6_2 C 0.71894 0.33191 0.02441
H4_2 H 0.76650 0.32731 0.04843
N7_2 N 0.48369 0.19857 0.10672
Zn2_3 Zn 0.74707 0.50000 -0.00000
N8_2 N 0.39442 0.30586 0.01553
C1_2 C 0.56484 0.21988 0.83575
H1_2 H 0.59345 0.26504 0.83445
N1_2 N 0.51631 0.19857 0.89328
O1_2 O 0.41332 0.01836 0.88758
Zn1_4 Zn 0.50000 0.25293 1.00000
C2_2 C 0.49068 0.13064 0.86936
N2_2 N 0.43593 0.08435 0.91565
N3_2 N 0.60558 0.30586 0.98447
O2_2 O 0.60570 0.48819 0.89663
C4_2 C 0.62590 0.37410 0.96095
N4_2 N 0.57977 0.42023 0.91679
C5_2 C 0.56484 0.16425 0.78012
H3_2 H 0.59345 0.16555 0.73496
N5_2 N 0.51631 0.10672 0.80143
O3_2 O 0.41332 0.11242 0.98164
N6_2 N 0.69414 0.39442 0.98447
O4_2 O 0.51181 0.39430 0.89663
Zn2_4 Zn 0.74707 0.50000 1.00000
Zn3_3 Zn 0.50000 -0.00000 0.25293
C1_3 C 0.56484 0.78012 0.16425
H1_3 H 0.59345 0.73496 0.16555
O1_3 O 0.41332 0.98164 0.11242
C2_3 C 0.49068 0.86936 0.13064
N2_3 N 0.43593 0.91565 0.08435
O2_3 O 0.60570 0.51181 0.10337
C4_3 C 0.62590 0.62590 0.03905
N4_3 N 0.57977 0.57977 0.08321
C5_3 C 0.56484 0.83575 0.21988
H3_3 H 0.59345 0.83445 0.26504
N5_3 N 0.51631 0.89328 0.19857
O3_3 O 0.41332 0.88758 0.01836
N6_3 N 0.69414 0.60558 0.01553
O4_3 O 0.51181 0.60570 0.10337
Zn3_4 Zn 0.50000 1.00000 0.25293
C3_3 C 0.66809 0.71894 0.97559
H2_3 H 0.67269 0.76650 0.95157
C6_3 C 0.71894 0.66809 0.97559
H4_3 H 0.76650 0.67269 0.95157
C1_4 C 0.43516 0.21988 0.16425
H1_4 H 0.40655 0.26504 0.16555
O1_4 O 0.58668 0.01836 0.11242
C2_4 C 0.50932 0.13064 0.13064
N2_4 N 0.56407 0.08435 0.08435
O2_4 O 0.39430 0.48819 0.10337
C4_4 C 0.37410 0.37410 0.03905
N4_4 N 0.42023 0.42023 0.08321
C5_4 C 0.43516 0.16425 0.21988
H3_4 H 0.40655 0.16555 0.26504
N5_4 N 0.48369 0.10672 0.19857
O3_4 O 0.58668 0.11242 0.01836
N6_4 N 0.30586 0.39442 0.01553
O4_4 O 0.48819 0.39430 0.10337
C3_4 C 0.33191 0.28106 0.97559
H2_4 H 0.32731 0.23350 0.95157
C6_4 C 0.28106 0.33191 0.97559
H4_4 H 0.23350 0.32731 0.95157
Zn1_5 Zn -0.00000 0.50000 0.74707
C3_5 C 0.02441 0.33191 0.71894
H2_5 H 0.04843 0.32731 0.76650
C6_5 C 0.02441 0.28106 0.66809
H4_5 H 0.04843 0.23350 0.67269
N7_3 N 0.10672 0.51631 0.80143
Zn2_5 Zn -0.00000 0.25293 0.50000
N8_3 N 0.01553 0.60558 0.69414
C1_5 C 0.83575 0.43516 0.78012
H1_5 H 0.83445 0.40655 0.73496
N1_3 N 0.89328 0.48369 0.80143
O1_5 O 0.88758 0.58668 0.98164
Zn1_6 Zn 1.00000 0.50000 0.74707
C2_5 C 0.86936 0.50932 0.86936
N2_5 N 0.91565 0.56407 0.91565
N3_3 N 0.98447 0.39442 0.69414
O2_5 O 0.89663 0.39430 0.51181
C4_5 C 0.96095 0.37410 0.62590
N4_5 N 0.91679 0.42023 0.57977
C5_5 C 0.78012 0.43516 0.83575
H3_5 H 0.73496 0.40655 0.83445
N5_5 N 0.80143 0.48369 0.89328
O3_5 O 0.98164 0.58668 0.88758
N6_5 N 0.98447 0.30586 0.60558
O4_5 O 0.89663 0.48819 0.60570
Zn2_6 Zn 1.00000 0.25293 0.50000
Zn1_7 Zn -0.00000 0.50000 0.25293
C3_6 C 0.02441 0.66809 0.28106
H2_6 H 0.04843 0.67269 0.23350
C6_6 C 0.02441 0.71894 0.33191
H4_6 H 0.04843 0.76650 0.32731
N7_4 N 0.10672 0.48369 0.19857
Zn2_7 Zn -0.00000 0.74707 0.50000
N8_4 N 0.01553 0.39442 0.30586
C1_6 C 0.83575 0.56484 0.21988
H1_6 H 0.83445 0.59345 0.26504
N1_4 N 0.89328 0.51631 0.19857
O1_6 O 0.88758 0.41332 0.01836
Zn1_8 Zn 1.00000 0.50000 0.25293
C2_6 C 0.86936 0.49068 0.13064
N2_6 N 0.91565 0.43593 0.08435
N3_4 N 0.98447 0.60558 0.30586
O2_6 O 0.89663 0.60570 0.48819
C4_6 C 0.96095 0.62590 0.37410
N4_6 N 0.91679 0.57977 0.42023
C5_6 C 0.78012 0.56484 0.16425
H3_6 H 0.73496 0.59345 0.16555
N5_6 N 0.80143 0.51631 0.10672
O3_6 O 0.98164 0.41332 0.11242
N6_6 N 0.98447 0.69414 0.39442
O4_6 O 0.89663 0.51181 0.39430
Zn2_8 Zn 1.00000 0.74707 0.50000
C1_7 C 0.16425 0.56484 0.78012
H1_7 H 0.16555 0.59345 0.73496
O1_7 O 0.11242 0.41332 0.98164
C2_7 C 0.13064 0.49068 0.86936
N2_7 N 0.08435 0.43593 0.91565
O2_7 O 0.10337 0.60570 0.51181
C4_7 C 0.03905 0.62590 0.62590
N4_7 N 0.08321 0.57977 0.57977
C5_7 C 0.21988 0.56484 0.83575
H3_7 H 0.26504 0.59345 0.83445
N5_7 N 0.19857 0.51631 0.89328
O3_7 O 0.01836 0.41332 0.88758
N6_7 N 0.01553 0.69414 0.60558
O4_7 O 0.10337 0.51181 0.60570
C3_7 C 0.97559 0.66809 0.71894
H2_7 H 0.95157 0.67269 0.76650
C6_7 C 0.97559 0.71894 0.66809
H4_7 H 0.95157 0.76650 0.67269
C1_8 C 0.16425 0.43516 0.21988
H1_8 H 0.16555 0.40655 0.26504
O1_8 O 0.11242 0.58668 0.01836
C2_8 C 0.13064 0.50932 0.13064
N2_8 N 0.08435 0.56407 0.08435
O2_8 O 0.10337 0.39430 0.48819
C4_8 C 0.03905 0.37410 0.37410
N4_8 N 0.08321 0.42023 0.42023
C5_8 C 0.21988 0.43516 0.16425
H3_8 H 0.26504 0.40655 0.16555
N5_8 N 0.19857 0.48369 0.10672
O3_8 O 0.01836 0.58668 0.11242
N6_8 N 0.01553 0.30586 0.39442
O4_8 O 0.10337 0.48819 0.39430
C3_8 C 0.97559 0.33191 0.28106
H2_8 H 0.95157 0.32731 0.23350
C6_8 C 0.97559 0.28106 0.33191
H4_8 H 0.95157 0.23350 0.32731
Zn1_9 Zn 0.74707 -0.00000 0.50000
C3_9 C 0.71894 0.02441 0.33191
H2_9 H 0.76650 0.04843 0.32731
C6_9 C 0.66809 0.02441 0.28106
H4_9 H 0.67269 0.04843 0.23350
N7_5 N 0.80143 0.10672 0.51631
N8_5 N 0.69414 0.01553 0.60558
C1_9 C 0.78012 0.83575 0.43516
H1_9 H 0.73496 0.83445 0.40655
N1_5 N 0.80143 0.89328 0.48369
O1_9 O 0.98164 0.88758 0.58668
Zn1_10 Zn 0.74707 1.00000 0.50000
C2_9 C 0.86936 0.86936 0.50932
N2_9 N 0.91565 0.91565 0.56407
N3_5 N 0.69414 0.98447 0.39442
O2_9 O 0.51181 0.89663 0.39430
C4_9 C 0.62590 0.96095 0.37410
N4_9 N 0.57977 0.91679 0.42023
C5_9 C 0.83575 0.78012 0.43516
H3_9 H 0.83445 0.73496 0.40655
N5_9 N 0.89328 0.80143 0.48369
O3_9 O 0.88758 0.98164 0.58668
N6_9 N 0.60558 0.98447 0.30586
O4_9 O 0.60570 0.89663 0.48819
Zn1_11 Zn 0.25293 -0.00000 0.50000
C3_10 C 0.28106 0.02441 0.66809
H2_10 H 0.23350 0.04843 0.67269
C6_10 C 0.33191 0.02441 0.71894
H4_10 H 0.32731 0.04843 0.76650
N7_6 N 0.19857 0.10672 0.48369
N8_6 N 0.30586 0.01553 0.39442
C1_10 C 0.21988 0.83575 0.56484
H1_10 H 0.26504 0.83445 0.59345
N1_6 N 0.19857 0.89328 0.51631
O1_10 O 0.01836 0.88758 0.41332
Zn1_12 Zn 0.25293 1.00000 0.50000
C2_10 C 0.13064 0.86936 0.49068
N2_10 N 0.08435 0.91565 0.43593
N3_6 N 0.30586 0.98447 0.60558
O2_10 O 0.48819 0.89663 0.60570
C4_10 C 0.37410 0.96095 0.62590
N4_10 N 0.42023 0.91679 0.57977
C5_10 C 0.16425 0.78012 0.56484
H3_10 H 0.16555 0.73496 0.59345
N5_10 N 0.10672 0.80143 0.51631
O3_10 O 0.11242 0.98164 0.41332
N6_10 N 0.39442 0.98447 0.69414
O4_10 O 0.39430 0.89663 0.51181
C1_11 C 0.78012 0.16425 0.56484
H1_11 H 0.73496 0.16555 0.59345
O1_11 O 0.98164 0.11242 0.41332
C2_11 C 0.86936 0.13064 0.49068
N2_11 N 0.91565 0.08435 0.43593
O2_11 O 0.51181 0.10337 0.60570
C4_11 C 0.62590 0.03905 0.62590
N4_11 N 0.57977 0.08321 0.57977
C5_11 C 0.83575 0.21988 0.56484
H3_11 H 0.83445 0.26504 0.59345
N5_11 N 0.89328 0.19857 0.51631
O3_11 O 0.88758 0.01836 0.41332
N6_11 N 0.60558 0.01553 0.69414
O4_11 O 0.60570 0.10337 0.51181
C3_11 C 0.71894 0.97559 0.66809
H2_11 H 0.76650 0.95157 0.67269
C6_11 C 0.66809 0.97559 0.71894
H4_11 H 0.67269 0.95157 0.76650
C1_12 C 0.21988 0.16425 0.43516
H1_12 H 0.26504 0.16555 0.40655
O1_12 O 0.01836 0.11242 0.58668
C2_12 C 0.13064 0.13064 0.50932
N2_12 N 0.08435 0.08435 0.56407
O2_12 O 0.48819 0.10337 0.39430
C4_12 C 0.37410 0.03905 0.37410
N4_12 N 0.42023 0.08321 0.42023
C5_12 C 0.16425 0.21988 0.43516
H3_12 H 0.16555 0.26504 0.40655
N5_12 N 0.10672 0.19857 0.48369
O3_12 O 0.11242 0.01836 0.58668
N6_12 N 0.39442 0.01553 0.30586
O4_12 O 0.39430 0.10337 0.48819
C3_12 C 0.28106 0.97559 0.33191
H2_12 H 0.23350 0.95157 0.32731
C6_12 C 0.33191 0.97559 0.28106
H4_12 H 0.32731 0.95157 0.23350
loop_
_geom_bond_atom_site_label_1
_geom_bond_atom_site_label_2
_geom_bond_site_symmetry_1
_geom_bond_site_symmetry_2
C3 H2 1_555 1_555
C6 C3 1_555 1_555
H4 C6 1_555 1_555
N7 Zn1 1_555 1_555
N8 Zn1 1_555 1_555
C1 H1 1_555 1_555
N1 C1 1_555 1_555
O1 N2 1_555 1_555
Zn1_2 N1 1_555 1_555
C2 N1 1_555 1_555
N2 C2 1_555 1_555
N3 Zn1_2 1_555 1_555
O2 N4 1_555 1_555
C4 N3 1_555 1_555
N4 C4 1_555 1_555
C5 C1 1_555 1_555
H3 C5 1_555 1_555
N5 C2 1_555 1_555
O3 N2 1_555 1_555
N6 C4 1_555 1_555
O4 N4 1_555 1_555
Zn2_2 N6 1_555 1_555
Zn3_2 N5 1_555 1_555
C5 N5 1_555 1_555
C3_2 H2_2 1_555 1_555
C6_2 C3_2 1_555 1_555
H4_2 C6_2 1_555 1_555
N7_2 Zn1_3 1_555 1_555
N8_2 Zn1_3 1_555 1_555
C1_2 H1_2 1_555 1_555
N1_2 C1_2 1_555 1_555
O1_2 N2_2 1_555 1_555
Zn1_4 N1_2 1_555 1_555
C2_2 N1_2 1_555 1_555
N2_2 C2_2 1_555 1_555
N3_2 Zn1_4 1_555 1_555
O2_2 N4_2 1_555 1_555
C4_2 N3_2 1_555 1_555
N4_2 C4_2 1_555 1_555
C5_2 C1_2 1_555 1_555
H3_2 C5_2 1_555 1_555
N5_2 C2_2 1_555 1_555
O3_2 N2_2 1_555 1_555
N6_2 C4_2 1_555 1_555
O4_2 N4_2 1_555 1_555
Zn2_4 N6_2 1_555 1_555
Zn3 N5_2 1_555 1_555
C5_2 N5_2 1_555 1_555
C1_3 H1_3 1_555 1_555
N7 C1_3 1_555 1_555
O1_3 N2_3 1_555 1_555
C2_3 N7 1_555 1_555
N2_3 C2_3 1_555 1_555
O2_3 N4_3 1_555 1_555
C4_3 N8 1_555 1_555
N4_3 C4_3 1_555 1_555
C5_3 C1_3 1_555 1_555
H3_3 C5_3 1_555 1_555
N5_3 C2_3 1_555 1_555
O3_3 N2_3 1_555 1_555
N6_3 C4_3 1_555 1_555
O4_3 N4_3 1_555 1_555
Zn2_3 N6_3 1_555 1_555
Zn3_4 N5_3 1_555 1_555
C5_3 N5_3 1_555 1_555
C3_3 H2_3 1_555 1_555
C6_3 C3_3 1_555 1_555
H4_3 C6_3 1_555 1_555
C1_4 H1_4 1_555 1_555
N7_2 C1_4 1_555 1_555
O1_4 N2_4 1_555 1_555
C2_4 N7_2 1_555 1_555
N2_4 C2_4 1_555 1_555
O2_4 N4_4 1_555 1_555
C4_4 N8_2 1_555 1_555
N4_4 C4_4 1_555 1_555
C5_4 C1_4 1_555 1_555
H3_4 C5_4 1_555 1_555
N5_4 C2_4 1_555 1_555
O3_4 N2_4 1_555 1_555
N6_4 C4_4 1_555 1_555
O4_4 N4_4 1_555 1_555
Zn2 N6_4 1_555 1_555
Zn3_3 N5_4 1_555 1_555
C5_4 N5_4 1_555 1_555
C3_4 H2_4 1_555 1_555
C6_4 C3_4 1_555 1_555
H4_4 C6_4 1_555 1_555
C3_5 H2_5 1_555 1_555
C6_5 C3_5 1_555 1_555
H4_5 C6_5 1_555 1_555
N7_3 Zn1_5 1_555 1_555
N8_3 Zn1_5 1_555 1_555
C1_5 H1_5 1_555 1_555
N1_3 C1_5 1_555 1_555
O1_5 N2_5 1_555 1_555
Zn1_6 N1_3 1_555 1_555
C2_5 N1_3 1_555 1_555
N2_5 C2_5 1_555 1_555
N3_3 Zn1_6 1_555 1_555
O2_5 N4_5 1_555 1_555
C4_5 N3_3 1_555 1_555
N4_5 C4_5 1_555 1_555
C5_5 C1_5 1_555 1_555
H3_5 C5_5 1_555 1_555
N5_5 C2_5 1_555 1_555
O3_5 N2_5 1_555 1_555
N6_5 C4_5 1_555 1_555
O4_5 N4_5 1_555 1_555
Zn2_6 N6_5 1_555 1_555
Zn2_4 N5_5 1_555 1_555
C5_5 N5_5 1_555 1_555
C3_6 H2_6 1_555 1_555
C6_6 C3_6 1_555 1_555
H4_6 C6_6 1_555 1_555
N7_4 Zn1_7 1_555 1_555
N8_4 Zn1_7 1_555 1_555
C1_6 H1_6 1_555 1_555
N1_4 C1_6 1_555 1_555
O1_6 N2_6 1_555 1_555
Zn1_8 N1_4 1_555 1_555
C2_6 N1_4 1_555 1_555
N2_6 C2_6 1_555 1_555
N3_4 Zn1_8 1_555 1_555
O2_6 N4_6 1_555 1_555
C4_6 N3_4 1_555 1_555
N4_6 C4_6 1_555 1_555
C5_6 C1_6 1_555 1_555
H3_6 C5_6 1_555 1_555
N5_6 C2_6 1_555 1_555
O3_6 N2_6 1_555 1_555
N6_6 C4_6 1_555 1_555
O4_6 N4_6 1_555 1_555
Zn2_8 N6_6 1_555 1_555
Zn2_3 N5_6 1_555 1_555
C5_6 N5_6 1_555 1_555
C1_7 H1_7 1_555 1_555
N7_3 C1_7 1_555 1_555
O1_7 N2_7 1_555 1_555
C2_7 N7_3 1_555 1_555
N2_7 C2_7 1_555 1_555
O2_7 N4_7 1_555 1_555
C4_7 N8_3 1_555 1_555
N4_7 C4_7 1_555 1_555
C5_7 C1_7 1_555 1_555
H3_7 C5_7 1_555 1_555
N5_7 C2_7 1_555 1_555
O3_7 N2_7 1_555 1_555
N6_7 C4_7 1_555 1_555
O4_7 N4_7 1_555 1_555
Zn2_7 N6_7 1_555 1_555
Zn2_2 N5_7 1_555 1_555
C5_7 N5_7 1_555 1_555
C3_7 H2_7 1_555 1_555
C6_7 C3_7 1_555 1_555
H4_7 C6_7 1_555 1_555
C1_8 H1_8 1_555 1_555
N7_4 C1_8 1_555 1_555
O1_8 N2_8 1_555 1_555
C2_8 N7_4 1_555 1_555
N2_8 C2_8 1_555 1_555
O2_8 N4_8 1_555 1_555
C4_8 N8_4 1_555 1_555
N4_8 C4_8 1_555 1_555
C5_8 C1_8 1_555 1_555
H3_8 C5_8 1_555 1_555
N5_8 C2_8 1_555 1_555
O3_8 N2_8 1_555 1_555
N6_8 C4_8 1_555 1_555
O4_8 N4_8 1_555 1_555
Zn2_5 N6_8 1_555 1_555
Zn2 N5_8 1_555 1_555
C5_8 N5_8 1_555 1_555
C3_8 H2_8 1_555 1_555
C6_8 C3_8 1_555 1_555
H4_8 C6_8 1_555 1_555
C3_9 H2_9 1_555 1_555
C6_9 C3_9 1_555 1_555
H4_9 C6_9 1_555 1_555
N7_5 Zn1_9 1_555 1_555
N8_5 Zn1_9 1_555 1_555
C1_9 H1_9 1_555 1_555
N1_5 C1_9 1_555 1_555
O1_9 N2_9 1_555 1_555
Zn1_10 N1_5 1_555 1_555
C2_9 N1_5 1_555 1_555
N2_9 C2_9 1_555 1_555
N3_5 Zn1_10 1_555 1_555
O2_9 N4_9 1_555 1_555
C4_9 N3_5 1_555 1_555
N4_9 C4_9 1_555 1_555
C5_9 C1_9 1_555 1_555
H3_9 C5_9 1_555 1_555
N5_9 C2_9 1_555 1_555
O3_9 N2_9 1_555 1_555
N6_9 C4_9 1_555 1_555
O4_9 N4_9 1_555 1_555
Zn3_4 N6_9 1_555 1_555
Zn2_8 N5_9 1_555 1_555
C5_9 N5_9 1_555 1_555
C3_10 H2_10 1_555 1_555
C6_10 C3_10 1_555 1_555
H4_10 C6_10 1_555 1_555
N7_6 Zn1_11 1_555 1_555
N8_6 Zn1_11 1_555 1_555
C1_10 H1_10 1_555 1_555
N1_6 C1_10 1_555 1_555
O1_10 N2_10 1_555 1_555
Zn1_12 N1_6 1_555 1_555
C2_10 N1_6 1_555 1_555
N2_10 C2_10 1_555 1_555
N3_6 Zn1_12 1_555 1_555
O2_10 N4_10 1_555 1_555
C4_10 N3_6 1_555 1_555
N4_10 C4_10 1_555 1_555
C5_10 C1_10 1_555 1_555
H3_10 C5_10 1_555 1_555
N5_10 C2_10 1_555 1_555
O3_10 N2_10 1_555 1_555
N6_10 C4_10 1_555 1_555
O4_10 N4_10 1_555 1_555
Zn3_2 N6_10 1_555 1_555
Zn2_7 N5_10 1_555 1_555
C5_10 N5_10 1_555 1_555
C1_11 H1_11 1_555 1_555
N7_5 C1_11 1_555 1_555
O1_11 N2_11 1_555 1_555
C2_11 N7_5 1_555 1_555
N2_11 C2_11 1_555 1_555
O2_11 N4_11 1_555 1_555
C4_11 N8_5 1_555 1_555
N4_11 C4_11 1_555 1_555
C5_11 C1_11 1_555 1_555
H3_11 C5_11 1_555 1_555
N5_11 C2_11 1_555 1_555
O3_11 N2_11 1_555 1_555
N6_11 C4_11 1_555 1_555
O4_11 N4_11 1_555 1_555
Zn3 N6_11 1_555 1_555
Zn2_6 N5_11 1_555 1_555
C5_11 N5_11 1_555 1_555
C3_11 H2_11 1_555 1_555
C6_11 C3_11 1_555 1_555
H4_11 C6_11 1_555 1_555
C1_12 H1_12 1_555 1_555
N7_6 C1_12 1_555 1_555
O1_12 N2_12 1_555 1_555
C2_12 N7_6 1_555 1_555
N2_12 C2_12 1_555 1_555
O2_12 N4_12 1_555 1_555
C4_12 N8_6 1_555 1_555
N4_12 C4_12 1_555 1_555
C5_12 C1_12 1_555 1_555
H3_12 C5_12 1_555 1_555
N5_12 C2_12 1_555 1_555
O3_12 N2_12 1_555 1_555
N6_12 C4_12 1_555 1_555
O4_12 N4_12 1_555 1_555
Zn3_3 N6_12 1_555 1_555
Zn2_5 N5_12 1_555 1_555
C5_12 N5_12 1_555 1_555
C3_12 H2_12 1_555 1_555
C6_12 C3_12 1_555 1_555
H4_12 C6_12 1_555 1_555

#END
