
###############################################################################
#
# This file contains modified crystal structure data generated from the
# MOF subset of the Cambridge Structural Database (CSD) v543 
# hosted by the Cambridge Crystallographic Data Centre (CCDC).
#
# This work is licensed under the Creative Commons
# Attribution-NonCommercial-ShareAlike 4.0 International License.
# To view a copy of this license, visit
# http://creativecommons.org/licenses/by-nc-sa/4.0/
# or send a letter to
# Creative Commons, PO Box 1866, Mountain View, CA 94042, USA.
#
# CIF created using the CSD Python API on 29 September 2022
# The structure has been converted into the P1 space group
# The structure has a 3D framework
# The original CSD entry ZEXKUK is in the monoclinic crystal system
# The framework has been calculated to contain at least 10.0% void space
# The void calculation uses a probe of radius 1.32A, grid spacing 0.4
#
###############################################################################

data_ZEXKUK
_chemical_formula_moiety         '(C48 H32 Co2 N4 O12)n'
_symmetry_cell_setting           triclinic
_symmetry_space_group_name_H-M   'P 1'
_symmetry_Int_Tables_number      1
_space_group_name_Hall           'P 1'
loop_
_symmetry_equiv_pos_site_id
_symmetry_equiv_pos_as_xyz
1 x,y,z
_cell_length_a                   13.262(3)
_cell_length_b                   11.519(2)
_cell_length_c                   9.2992(18)
_cell_angle_alpha                90
_cell_angle_beta                 90.913(4)
_cell_angle_gamma                90
_cell_volume                     1420.41
loop_
_atom_site_label
_atom_site_type_symbol
_atom_site_fract_x
_atom_site_fract_y
_atom_site_fract_z
O3 O 0.0000 0.7368(2) 0.2500
O4 O 0.38090(11) 0.56248(12) 0.60331(15)
C14 C 0.35129(16) 0.52410(17) 0.4833(2)
C15 C 0.25387(16) 0.57579(18) 0.4256(2)
C16 C 0.20693(17) 0.5285(2) 0.3040(2)
H9 H 0.2340 0.4626 0.2616
C17 C 0.12049(18) 0.5782(2) 0.2454(3)
H10 H 0.0895 0.5461 0.1643
C18 C 0.08109(18) 0.6758(2) 0.3090(3)
C19 C 0.12505(18) 0.7232(2) 0.4313(3)
H11 H 0.0969 0.7882 0.4745
C20 C 0.21145(17) 0.6728(2) 0.4889(2)
H12 H 0.2414 0.7044 0.5711
O5 O 0.39329(11) 0.44689(13) 0.41122(16)
Co3 Co 0.5000 0.55030(3) 0.7500
Co5 Co 0.5000 0.44970(3) 0.2500
N2 N 0.5000 0.3592(2) 0.7500
C11 C 0.5000 0.1146(3) 0.7500
C12 C 0.57981(18) 0.1778(2) 0.8087(3)
H7 H 0.6348 0.1396 0.8500
C13 C 0.57702(18) 0.2977(2) 0.8054(2)
H8 H 0.6319 0.3380 0.8439
C23 C 0.42019(18) 0.1778(2) 0.6913(3)
H15 H 0.3652 0.1396 0.6500
C24 C 0.42298(18) 0.2977(2) 0.6946(2)
H16 H 0.3681 0.3380 0.6561
O2 O 0.60671(11) 0.44689(13) 0.08878(16)
O3_2 O 1.0000 0.7368(2) 0.2500
C1 C 0.64871(16) 0.52410(17) 0.0167(2)
C2 C 0.74613(16) 0.57579(18) 0.0744(2)
C3 C 0.79307(17) 0.5285(2) 0.1960(2)
H1 H 0.7660 0.4626 0.2384
C4 C 0.87951(18) 0.5782(2) 0.2546(3)
H2 H 0.9105 0.5461 0.3357
C5 C 0.91891(18) 0.6758(2) 0.1910(3)
C6 C 0.87495(18) 0.7232(2) 0.0687(3)
H3 H 0.9031 0.7882 0.0255
C7 C 0.78855(17) 0.6728(2) 0.0111(2)
O1 O 0.61910(11) 0.56248(12) 0.89669(15)
N1 N 0.5000 0.7413(2) 0.7500
H4 H 0.7586 0.7044 0.9289
C8 C 0.54444(19) 0.8024(2) 0.8554(3)
H5 H 0.5744 0.7621 0.9314
C9 C 0.54835(19) 0.9224(2) 0.8576(3)
H6 H 0.5833 0.9605 0.9312
C10 C 0.5000 0.9860(3) 0.7500
C21 C 0.45556(19) 0.8024(2) 0.6446(3)
H13 H 0.4256 0.7621 0.5686
C22 C 0.45165(19) 0.9224(2) 0.6424(3)
H14 H 0.4167 0.9605 0.5688
O7 O 0.39329(11) 0.55311(13) 0.91122(16)
O8 O 0.60671(11) 0.55311(13) 0.58878(16)
O1_2 O 0.38090(11) 0.43752(12) 0.10331(15)
N1_2 N 0.5000 0.2587(2) 0.2500
H4_2 H 0.2414 0.2956 0.0711
C8_2 C 0.45556(19) 0.1976(2) 0.1446(3)
H5_2 H 0.4256 0.2379 0.0686
C9_2 C 0.45165(19) 0.0776(2) 0.1424(3)
H6_2 H 0.4167 0.0395 0.0688
C10_2 C 0.5000 0.0140(3) 0.2500
C21_2 C 0.54444(19) 0.1976(2) 0.3554(3)
H13_2 H 0.5744 0.2379 0.4314
C22_2 C 0.54835(19) 0.0776(2) 0.3576(3)
H14_2 H 0.5833 0.0395 0.4312
O6 O 0.61910(11) 0.43752(12) 0.39669(15)
N3 N 0.5000 0.6408(2) 0.2500
O3_3 O 0.0000 0.2632(2) 0.7500
C1_2 C 0.35129(16) 0.47590(17) 0.9833(2)
C2_2 C 0.25387(16) 0.42421(18) 0.9256(2)
C3_2 C 0.20693(17) 0.4715(2) 0.8040(2)
H1_2 H 0.2340 0.5374 0.7616
C4_2 C 0.12049(18) 0.4218(2) 0.7454(3)
H2_2 H 0.0895 0.4539 0.6643
C5_2 C 0.08109(18) 0.3242(2) 0.8090(3)
C6_2 C 0.12505(18) 0.2768(2) 0.9313(3)
H3_2 H 0.0969 0.2118 0.9745
C7_2 C 0.21145(17) 0.3272(2) 0.9889(2)
C11_2 C 0.5000 0.8854(3) 0.2500
C12_2 C 0.42019(18) 0.8222(2) 0.1913(3)
H7_2 H 0.3652 0.8604 0.1500
C13_2 C 0.42298(18) 0.7023(2) 0.1946(2)
H8_2 H 0.3681 0.6620 0.1561
C23_2 C 0.57981(18) 0.8222(2) 0.3087(3)
H15_2 H 0.6348 0.8604 0.3500
C24_2 C 0.57702(18) 0.7023(2) 0.3054(2)
H16_2 H 0.6319 0.6620 0.3439
O3_4 O 1.0000 0.2632(2) 0.7500
C14_2 C 0.64871(16) 0.47590(17) 0.5167(2)
C15_2 C 0.74613(16) 0.42421(18) 0.5744(2)
C16_2 C 0.79307(17) 0.4715(2) 0.6960(2)
H9_2 H 0.7660 0.5374 0.7384
C17_2 C 0.87951(18) 0.4218(2) 0.7546(3)
H10_2 H 0.9105 0.4539 0.8357
C18_2 C 0.91891(18) 0.3242(2) 0.6910(3)
C19_2 C 0.87495(18) 0.2768(2) 0.5687(3)
H11_2 H 0.9031 0.2118 0.5255
C20_2 C 0.78855(17) 0.3272(2) 0.5111(2)
H12_2 H 0.7586 0.2956 0.4289
loop_
_geom_bond_atom_site_label_1
_geom_bond_atom_site_label_2
_geom_bond_site_symmetry_1
_geom_bond_site_symmetry_2
O4 C14 1_555 1_555
C14 C15 1_555 1_555
C15 C16 1_555 1_555
C16 H9 1_555 1_555
C17 C16 1_555 1_555
H10 C17 1_555 1_555
C18 O3 1_555 1_555
C19 C18 1_555 1_555
H11 C19 1_555 1_555
C20 C15 1_555 1_555
H12 C20 1_555 1_555
O5 C14 1_555 1_555
Co3 O4 1_555 1_555
Co5 O5 1_555 1_555
C17 C18 1_555 1_555
C19 C20 1_555 1_555
N2 C13 1_555 1_555
C12 C11 1_555 1_555
H7 C12 1_555 1_555
C13 C12 1_555 1_555
H8 C13 1_555 1_555
C23 C11 1_555 1_555
H15 C23 1_555 1_555
C24 N2 1_555 1_555
H16 C24 1_555 1_555
Co3 N2 1_555 1_555
C23 C24 1_555 1_555
O2 C1 1_555 1_555
O3_2 C5 1_555 1_555
C1 C2 1_555 1_555
C2 C3 1_555 1_555
C3 H1 1_555 1_555
C4 C3 1_555 1_555
H2 C4 1_555 1_555
C5 C4 1_555 1_555
C6 C5 1_555 1_555
H3 C6 1_555 1_555
C7 C2 1_555 1_555
Co5 O2 1_555 1_555
C6 C7 1_555 1_555
Co3 O1 1_555 1_555
N1 Co3 1_555 1_555
C8 N1 1_555 1_555
H5 C8 1_555 1_555
C9 C8 1_555 1_555
H6 C9 1_555 1_555
C10 C9 1_555 1_555
C21 N1 1_555 1_555
H13 C21 1_555 1_555
C22 C10 1_555 1_555
H14 C22 1_555 1_555
O7 Co3 1_555 1_555
O8 Co3 1_555 1_555
C21 C22 1_555 1_555
Co5 O1_2 1_555 1_555
N1_2 Co5 1_555 1_555
C8_2 N1_2 1_555 1_555
H5_2 C8_2 1_555 1_555
C9_2 C8_2 1_555 1_555
H6_2 C9_2 1_555 1_555
C10_2 C9_2 1_555 1_555
C21_2 N1_2 1_555 1_555
H13_2 C21_2 1_555 1_555
C22_2 C10_2 1_555 1_555
H14_2 C22_2 1_555 1_555
O6 Co5 1_555 1_555
N3 Co5 1_555 1_555
C21_2 C22_2 1_555 1_555
O7 C1_2 1_555 1_555
O3_3 C5_2 1_555 1_555
C1_2 C2_2 1_555 1_555
C2_2 C3_2 1_555 1_555
C3_2 H1_2 1_555 1_555
C4_2 C3_2 1_555 1_555
H2_2 C4_2 1_555 1_555
C5_2 C4_2 1_555 1_555
C6_2 C5_2 1_555 1_555
H3_2 C6_2 1_555 1_555
C7_2 C2_2 1_555 1_555
C6_2 C7_2 1_555 1_555
N3 C13_2 1_555 1_555
C12_2 C11_2 1_555 1_555
H7_2 C12_2 1_555 1_555
C13_2 C12_2 1_555 1_555
H8_2 C13_2 1_555 1_555
C23_2 C11_2 1_555 1_555
H15_2 C23_2 1_555 1_555
C24_2 N3 1_555 1_555
H16_2 C24_2 1_555 1_555
C23_2 C24_2 1_555 1_555
O6 C14_2 1_555 1_555
C14_2 C15_2 1_555 1_555
C15_2 C16_2 1_555 1_555
C16_2 H9_2 1_555 1_555
C17_2 C16_2 1_555 1_555
H10_2 C17_2 1_555 1_555
C18_2 O3_4 1_555 1_555
C19_2 C18_2 1_555 1_555
H11_2 C19_2 1_555 1_555
C20_2 C15_2 1_555 1_555
H12_2 C20_2 1_555 1_555
O8 C14_2 1_555 1_555
C17_2 C18_2 1_555 1_555
C19_2 C20_2 1_555 1_555

#END
