
###############################################################################
#
# This file contains modified crystal structure data generated from the
# MOF subset of the Cambridge Structural Database (CSD) v543 
# hosted by the Cambridge Crystallographic Data Centre (CCDC).
#
# This work is licensed under the Creative Commons
# Attribution-NonCommercial-ShareAlike 4.0 International License.
# To view a copy of this license, visit
# http://creativecommons.org/licenses/by-nc-sa/4.0/
# or send a letter to
# Creative Commons, PO Box 1866, Mountain View, CA 94042, USA.
#
# CIF created using the CSD Python API on 29 September 2022
# The structure has been converted into the P1 space group
# The structure has a 3D framework
# The original CSD entry ZEYRED is in the triclinic crystal system
# The framework has been calculated to contain at least 10.0% void space
# The void calculation uses a probe of radius 1.32A, grid spacing 0.4
# The framework is charged, counterions have been retained in the structure
#
###############################################################################

data_ZEYRED
_chemical_formula_moiety         '(C96 H76 O32 Zn4 2-)n'
_symmetry_cell_setting           triclinic
_symmetry_space_group_name_H-M   'P 1'
_symmetry_Int_Tables_number      1
_space_group_name_Hall           'P 1'
loop_
_symmetry_equiv_pos_site_id
_symmetry_equiv_pos_as_xyz
1 x,y,z
_cell_length_a                   13.8543(9)
_cell_length_b                   16.3940(11)
_cell_length_c                   16.6817(11)
_cell_angle_alpha                83.6600(10)
_cell_angle_beta                 76.5550(10)
_cell_angle_gamma                89.148(2)
_cell_volume                     3662.27
loop_
_atom_site_label
_atom_site_type_symbol
_atom_site_fract_x
_atom_site_fract_y
_atom_site_fract_z
H12 H 0.236826 0.030851 0.218567
H13 H 0.238914 0.029128 0.124583
Zn13 Zn 0.500000 0.000000 0.000000
Zn13_2 Zn 0.500000 0.000000 1.000000
O4 O 0.4135(2) 0.9922(2) 0.1259(2)
O5 O 0.3396(3) 0.8771(2) 0.1926(2)
O6 O 0.1555(3) 0.9417(3) 0.1974(3)
C15 C 0.0998(3) 0.7949(3) 0.0240(3)
C16 C 0.1833(3) 0.8463(3) 0.0047(3)
C17 C 0.2056(3) 0.8961(3) 0.0594(3)
H9 H 0.262209 0.929356 0.044576
C18 C 0.1418(4) 0.8957(3) 0.1374(3)
C19 C 0.0582(4) 0.8459(4) 0.1584(3)
H10 H 0.015880 0.845572 0.210616
C20 C 0.0369(3) 0.7969(3) 0.1028(3)
C21 C 0.2409(4) 0.9949(3) 0.1755(4)
C22 C 0.3396(4) 0.9517(3) 0.1633(3)
H19 H 0.205466 0.647636 0.042891
Zn6 Zn 0.46677(4) 0.82197(4) 0.15757(4)
Zn13_3 Zn 0.500000 1.000000 0.000000
O7 O 0.2341(2) 0.6881(2) 0.9236(2)
O9 O 0.1152(2) 0.48183(19) 0.9058(2)
O10 O 0.2401(3) 0.7135(2) 0.7150(2)
O11 O 0.2208(3) 0.1130(2) 0.8253(2)
O12 O 0.3761(2) 0.0583(2) 0.9668(2)
O13 O 0.4103(2) 0.1227(2) 0.8378(2)
O14 O 0.5788(3) 0.7064(3) 0.3942(2)
O15 O 0.4992(3) 0.6120(2) 0.3049(2)
O16 O 0.4614(3) 0.7168(2) 0.2236(2)
C10 C 0.0094(3) 0.6561(3) 0.8522(3)
C11 C 0.1072(3) 0.6502(3) 0.8603(3)
C12 C 0.1369(3) 0.6951(3) 0.9165(3)
C13 C 0.0719(3) 0.7463(3) 0.9645(3)
H8 H 0.225893 0.847037 0.952516
H15 H 0.052178 0.673985 0.693046
C24 C 0.2452(4) 0.6307(3) 0.9924(4)
H17 H 0.313633 0.628954 0.995239
H18 H 0.223942 0.577123 0.984990
C25 C 0.1755(3) 0.5963(3) 0.8080(3)
C26 C 0.1710(3) 0.5107(3) 0.8285(3)
C27 C 0.2264(3) 0.4588(3) 0.7736(3)
C28 C 0.2876(4) 0.4944(3) 0.7018(3)
H20 H 0.324427 0.460104 0.665518
C29 C 0.2978(3) 0.5790(3) 0.6801(3)
C30 C 0.2405(4) 0.6289(3) 0.7340(3)
C31 C 0.3252(5) 0.7542(4) 0.7273(4)
H21 H 0.316129 0.812532 0.720369
H22 H 0.383119 0.739825 0.687498
H23 H 0.333492 0.737682 0.782296
C32 C 0.0230(4) 0.4425(3) 0.9076(3)
H25 H 0.035383 0.396399 0.875936
C33 C 0.2198(3) 0.3681(3) 0.7916(3)
C34 C 0.2008(3) 0.3199(3) 0.7332(3)
H27 H 0.187910 0.345489 0.684248
C35 C 0.2006(4) 0.2350(3) 0.7458(3)
H28 H 0.187820 0.204037 0.705844
C36 C 0.2197(3) 0.1966(3) 0.8193(3)
C37 C 0.2382(3) 0.2428(3) 0.8787(3)
H29 H 0.251547 0.217481 0.927559
C38 C 0.2363(3) 0.3276(3) 0.8642(3)
H30 H 0.246639 0.358453 0.905055
C39 C 0.2482(4) 0.0716(3) 0.8958(4)
H31 H 0.237661 0.013171 0.896179
H32 H 0.204306 0.088755 0.945167
C40 C 0.3537(3) 0.0857(3) 0.9004(3)
C41 C 0.3703(4) 0.6122(3) 0.6031(3)
C42 C 0.3443(4) 0.6778(4) 0.5520(4)
H33 H 0.281804 0.701115 0.565672
C43 C 0.4134(5) 0.7083(4) 0.4800(4)
H34 H 0.396234 0.751326 0.444955
C44 C 0.5056(4) 0.6755(4) 0.4609(3)
C45 C 0.5312(4) 0.6102(4) 0.5113(3)
H35 H 0.594396 0.587996 0.498516
C46 C 0.4618(4) 0.5782(3) 0.5809(3)
H36 H 0.477902 0.532534 0.613377
C47 C 0.5461(4) 0.7445(4) 0.3238(3)
H37 H 0.602591 0.770594 0.284114
H38 H 0.499082 0.787086 0.341572
C48 C 0.4992(4) 0.6869(3) 0.2828(3)
Zn9 Zn 0.53323(4) 0.17803(4) 0.84243(4)
Zn13_4 Zn 0.500000 1.000000 1.000000
O18 O 0.5611(2) 0.1081(2) 0.0222(2)
O19 O 0.4704(3) 0.3010(2) 0.0859(3)
O24 O 0.0200(2) 0.3891(2) 0.2038(2)
C49 C 0.5359(3) 0.1812(3) 0.0126(3)
C50 C 0.5247(4) 0.2261(4) 0.0893(4)
H39 H 0.590233 0.238261 0.096633
H40 H 0.491189 0.189944 0.137476
C51 C 0.3706(4) 0.2944(3) 0.0901(3)
C52 C 0.3199(4) 0.2207(3) 0.0987(4)
H41 H 0.353069 0.171084 0.101107
C53 C 0.2180(4) 0.2225(3) 0.1038(3)
H42 H 0.183567 0.173038 0.110114
C54 C 0.1662(4) 0.2949(3) 0.0997(3)
C55 C 0.2201(4) 0.3682(3) 0.0928(3)
H43 H 0.187571 0.418208 0.092083
C56 C 0.3207(4) 0.3666(3) 0.0871(3)
H44 H 0.355496 0.415781 0.081027
C57 C 0.0602(3) 0.2962(3) 0.0975(3)
C62 C 0.0256(3) 0.2514(3) 0.0456(3)
H45 H 0.069825 0.217000 0.014819
C71 C 0.0155(5) 0.3412(4) 0.2814(3)
H52 H 0.041496 0.372772 0.316925
H54 H 0.054272 0.292590 0.272433
H62 H 0.009427 0.576015 0.036103
H64 H 0.018731 0.519220 0.115890
O17 O 0.5208(3) 0.2206(2) 0.9487(2)
H49 H 0.020337 0.235477 0.882136
O34 O 0.5865(2) 0.0078(2) 0.8741(2)
O36 O 0.6604(3) 0.1229(2) 0.8074(2)
O42 O 0.5386(3) 0.2832(2) 0.7764(2)
O1 O 0.4792(3) 0.7794(2) 0.0513(2)
H11 H 0.979663 0.764523 0.117864
O38 O 0.6239(2) 0.9417(2) 0.0332(2)
O40 O 0.5897(2) 0.8773(2) 0.1622(2)
O2 O 0.4389(2) 0.8919(2) 0.9778(2)
O3 O 0.5296(3) 0.6990(2) 0.9141(3)
O8 O 0.9800(2) 0.6109(2) 0.7962(2)
C1 C 0.4641(3) 0.8188(3) 0.9874(3)
C2 C 0.4753(4) 0.7739(4) 0.9107(4)
H1 H 0.409767 0.761739 0.903367
H2 H 0.508811 0.810056 0.862524
C3 C 0.6294(4) 0.7056(3) 0.9099(3)
C4 C 0.6801(4) 0.7793(3) 0.9013(4)
H3 H 0.646931 0.828916 0.898893
C5 C 0.7820(4) 0.7775(3) 0.8962(3)
H4 H 0.816433 0.826962 0.889886
C6 C 0.8338(4) 0.7051(3) 0.9003(3)
C7 C 0.7799(4) 0.6318(3) 0.9072(3)
H5 H 0.812429 0.581792 0.907917
C8 C 0.6793(4) 0.6334(3) 0.9129(3)
H6 H 0.644504 0.584219 0.918973
C9 C 0.9398(3) 0.7038(3) 0.9025(3)
C14 C 0.9744(3) 0.7486(3) 0.9544(3)
H7 H 0.930175 0.783000 0.985181
C23 C 0.9845(5) 0.6588(4) 0.7186(3)
H14 H 0.958504 0.627228 0.683075
H16 H 0.945728 0.707410 0.727567
H24 H 0.990573 0.423985 0.963897
H26 H 0.981269 0.480780 0.884110
O23 O 0.7659(2) 0.3119(2) 0.0764(2)
O25 O 0.8848(2) 0.51817(19) 0.0942(2)
O26 O 0.7599(3) 0.2865(2) 0.2850(2)
O27 O 0.7792(3) 0.8870(2) 0.1747(2)
O30 O 0.4212(3) 0.2936(3) 0.6058(2)
O31 O 0.5008(3) 0.3880(2) 0.6951(2)
C58 C 0.9906(3) 0.3439(3) 0.1478(3)
C59 C 0.8928(3) 0.3498(3) 0.1397(3)
C60 C 0.8631(3) 0.3049(3) 0.0835(3)
C61 C 0.9281(3) 0.2537(3) 0.0355(3)
H46 H 0.774107 0.152963 0.047484
H53 H 0.947822 0.326015 0.306954
C72 C 0.7548(4) 0.3693(3) 0.0076(4)
H55 H 0.686367 0.371046 0.004761
H56 H 0.776058 0.422877 0.015010
C73 C 0.8245(3) 0.4037(3) 0.1920(3)
C74 C 0.8290(3) 0.4893(3) 0.1715(3)
C75 C 0.7736(3) 0.5412(3) 0.2264(3)
C76 C 0.7124(4) 0.5056(3) 0.2982(3)
H58 H 0.675573 0.539896 0.334482
C77 C 0.7022(3) 0.4210(3) 0.3199(3)
C78 C 0.7595(4) 0.3711(3) 0.2660(3)
C79 C 0.6748(5) 0.2458(4) 0.2727(4)
H59 H 0.683871 0.187468 0.279631
H60 H 0.616881 0.260175 0.312502
H61 H 0.666508 0.262318 0.217704
C80 C 0.9770(4) 0.5575(3) 0.0924(3)
H63 H 0.964617 0.603601 0.124064
C81 C 0.7802(3) 0.6319(3) 0.2084(3)
C82 C 0.7992(3) 0.6801(3) 0.2668(3)
H65 H 0.812090 0.654511 0.315752
C83 C 0.7994(4) 0.7650(3) 0.2542(3)
H66 H 0.812180 0.795963 0.294156
C84 C 0.7803(3) 0.8034(3) 0.1807(3)
C85 C 0.7618(3) 0.7572(3) 0.1213(3)
H67 H 0.748453 0.782519 0.072441
C86 C 0.7637(3) 0.6724(3) 0.1358(3)
H68 H 0.753361 0.641547 0.094945
C87 C 0.7518(4) 0.9284(3) 0.1042(4)
H69 H 0.762339 0.986829 0.103821
H70 H 0.795694 0.911245 0.054833
C88 C 0.6463(3) 0.9143(3) 0.0996(3)
C89 C 0.6297(4) 0.3878(3) 0.3969(3)
C90 C 0.6557(4) 0.3222(4) 0.4480(4)
H71 H 0.718196 0.298885 0.434328
C91 C 0.5866(5) 0.2917(4) 0.5200(4)
H72 H 0.603766 0.248674 0.555045
C92 C 0.4944(4) 0.3245(4) 0.5391(3)
C93 C 0.4688(4) 0.3898(4) 0.4887(3)
H73 H 0.405604 0.412004 0.501484
C94 C 0.5382(4) 0.4218(3) 0.4191(3)
H74 H 0.522098 0.467466 0.386623
C95 C 0.4539(4) 0.2555(4) 0.6762(3)
H75 H 0.397409 0.229406 0.715886
H76 H 0.500918 0.212914 0.658428
C96 C 0.5008(4) 0.3131(3) 0.7172(3)
O22 O 0.8445(3) 0.0583(3) 0.8026(3)
C63 C 0.9002(3) 0.2051(3) 0.9760(3)
C64 C 0.8167(3) 0.1537(3) 0.9953(3)
C65 C 0.7944(3) 0.1039(3) 0.9406(3)
H47 H 0.737791 0.070644 0.955424
C66 C 0.8582(4) 0.1043(3) 0.8626(3)
C67 C 0.9418(4) 0.1541(4) 0.8416(3)
H48 H 0.984120 0.154428 0.789384
C68 C 0.9631(3) 0.2031(3) 0.8972(3)
C69 C 0.7591(4) 0.0051(3) 0.8245(4)
C70 C 0.6604(4) 0.0483(3) 0.8367(3)
H57 H 0.794534 0.352364 0.957109
H50 H 0.763174 0.969149 0.781433
H51 H 0.761086 0.970872 0.875417
loop_
_geom_bond_atom_site_label_1
_geom_bond_atom_site_label_2
_geom_bond_site_symmetry_1
_geom_bond_site_symmetry_2
O4 C22 1_555 1_555
O5 C22 1_555 1_555
O6 C18 1_555 1_555
C16 C15 1_555 1_555
C17 C16 1_555 1_555
H9 C17 1_555 1_555
C18 C17 1_555 1_555
C19 C18 1_555 1_555
H10 C19 1_555 1_555
C20 C15 1_555 1_555
C21 O6 1_555 1_555
C22 C21 1_555 1_555
Zn6 O5 1_555 1_555
Zn13_3 O4 1_555 1_555
C19 C20 1_555 1_555
O7 C12 1_555 1_555
O9 C26 1_555 1_555
O10 C30 1_555 1_555
O11 C36 1_555 1_555
O12 C40 1_555 1_555
O13 C40 1_555 1_555
O14 C44 1_555 1_555
O15 C48 1_555 1_555
O16 C48 1_555 1_555
C11 C10 1_555 1_555
C12 C11 1_555 1_555
C13 C12 1_555 1_555
C24 O7 1_555 1_555
H17 C24 1_555 1_555
H18 C24 1_555 1_555
C25 C11 1_555 1_555
C26 C25 1_555 1_555
C27 C26 1_555 1_555
C28 C27 1_555 1_555
H20 C28 1_555 1_555
C29 C28 1_555 1_555
C30 C25 1_555 1_555
C31 O10 1_555 1_555
H21 C31 1_555 1_555
H22 C31 1_555 1_555
H23 C31 1_555 1_555
C32 O9 1_555 1_555
H25 C32 1_555 1_555
C33 C27 1_555 1_555
C34 C33 1_555 1_555
H27 C34 1_555 1_555
C35 C34 1_555 1_555
H28 C35 1_555 1_555
C36 C35 1_555 1_555
C37 C36 1_555 1_555
H29 C37 1_555 1_555
C38 C33 1_555 1_555
H30 C38 1_555 1_555
C39 O11 1_555 1_555
H31 C39 1_555 1_555
H32 C39 1_555 1_555
C40 C39 1_555 1_555
C41 C29 1_555 1_555
C42 C41 1_555 1_555
H33 C42 1_555 1_555
C43 C42 1_555 1_555
H34 C43 1_555 1_555
C44 C43 1_555 1_555
C45 C44 1_555 1_555
H35 C45 1_555 1_555
C46 C41 1_555 1_555
H36 C46 1_555 1_555
C47 O14 1_555 1_555
H37 C47 1_555 1_555
H38 C47 1_555 1_555
C48 C47 1_555 1_555
Zn6 O16 1_555 1_555
Zn9 O13 1_555 1_555
Zn13_2 O12 1_555 1_555
C29 C30 1_555 1_555
C37 C38 1_555 1_555
C45 C46 1_555 1_555
O18 Zn13 1_555 1_555
O19 C50 1_555 1_555
C49 O18 1_555 1_555
C50 C49 1_555 1_555
H39 C50 1_555 1_555
H40 C50 1_555 1_555
C51 O19 1_555 1_555
C52 C51 1_555 1_555
H41 C52 1_555 1_555
C53 C52 1_555 1_555
H42 C53 1_555 1_555
C54 C53 1_555 1_555
C55 C54 1_555 1_555
H43 C55 1_555 1_555
C56 C51 1_555 1_555
H44 C56 1_555 1_555
C57 C54 1_555 1_555
C62 C57 1_555 1_555
H45 C62 1_555 1_555
C71 O24 1_555 1_555
H52 C71 1_555 1_555
H54 C71 1_555 1_555
C55 C56 1_555 1_555
Zn9 O17 1_555 1_555
O34 Zn13_2 1_555 1_555
O36 Zn9 1_555 1_555
O42 Zn9 1_555 1_555
Zn6 O1 1_555 1_555
O38 Zn13_3 1_555 1_555
O40 Zn6 1_555 1_555
Zn13_4 O2 1_555 1_555
O2 C1 1_555 1_555
O3 C2 1_555 1_555
C1 C2 1_555 1_555
C2 H1 1_555 1_555
H2 C2 1_555 1_555
C3 O3 1_555 1_555
C4 C3 1_555 1_555
H3 C4 1_555 1_555
C5 C4 1_555 1_555
H4 C5 1_555 1_555
C6 C5 1_555 1_555
C7 C6 1_555 1_555
H5 C7 1_555 1_555
C8 C3 1_555 1_555
H6 C8 1_555 1_555
C9 C6 1_555 1_555
C14 C9 1_555 1_555
H7 C14 1_555 1_555
C23 O8 1_555 1_555
H14 C23 1_555 1_555
H16 C23 1_555 1_555
C7 C8 1_555 1_555
O23 C60 1_555 1_555
O25 C74 1_555 1_555
O26 C78 1_555 1_555
O27 C84 1_555 1_555
O38 C88 1_555 1_555
O40 C88 1_555 1_555
O30 C92 1_555 1_555
O31 C96 1_555 1_555
O42 C96 1_555 1_555
C59 C58 1_555 1_555
C60 C59 1_555 1_555
C61 C60 1_555 1_555
C72 O23 1_555 1_555
H55 C72 1_555 1_555
H56 C72 1_555 1_555
C73 C59 1_555 1_555
C74 C73 1_555 1_555
C75 C74 1_555 1_555
C76 C75 1_555 1_555
H58 C76 1_555 1_555
C77 C76 1_555 1_555
C78 C73 1_555 1_555
C79 O26 1_555 1_555
H59 C79 1_555 1_555
H60 C79 1_555 1_555
H61 C79 1_555 1_555
C80 O25 1_555 1_555
H63 C80 1_555 1_555
C81 C75 1_555 1_555
C82 C81 1_555 1_555
H65 C82 1_555 1_555
C83 C82 1_555 1_555
H66 C83 1_555 1_555
C84 C83 1_555 1_555
C85 C84 1_555 1_555
H67 C85 1_555 1_555
C86 C81 1_555 1_555
H68 C86 1_555 1_555
C87 O27 1_555 1_555
H69 C87 1_555 1_555
H70 C87 1_555 1_555
C88 C87 1_555 1_555
C89 C77 1_555 1_555
C90 C89 1_555 1_555
H71 C90 1_555 1_555
C91 C90 1_555 1_555
H72 C91 1_555 1_555
C92 C91 1_555 1_555
C93 C92 1_555 1_555
H73 C93 1_555 1_555
C94 C89 1_555 1_555
H74 C94 1_555 1_555
C95 O30 1_555 1_555
H75 C95 1_555 1_555
H76 C95 1_555 1_555
C96 C95 1_555 1_555
C77 C78 1_555 1_555
C85 C86 1_555 1_555
C93 C94 1_555 1_555
O34 C70 1_555 1_555
O36 C70 1_555 1_555
O22 C66 1_555 1_555
C64 C63 1_555 1_555
C65 C64 1_555 1_555
H47 C65 1_555 1_555
C66 C65 1_555 1_555
C67 C66 1_555 1_555
H48 C67 1_555 1_555
C68 C63 1_555 1_555
C69 O22 1_555 1_555
C70 C69 1_555 1_555
C67 C68 1_555 1_555

#END
