
###############################################################################
#
# This file contains modified crystal structure data generated from the
# MOF subset of the Cambridge Structural Database (CSD) v543 
# hosted by the Cambridge Crystallographic Data Centre (CCDC).
#
# This work is licensed under the Creative Commons
# Attribution-NonCommercial-ShareAlike 4.0 International License.
# To view a copy of this license, visit
# http://creativecommons.org/licenses/by-nc-sa/4.0/
# or send a letter to
# Creative Commons, PO Box 1866, Mountain View, CA 94042, USA.
#
# CIF created using the CSD Python API on 29 September 2022
# The structure has been converted into the P1 space group
# The structure has a 3D framework
# The original CSD entry ZEYTAB01 is in the tetragonal crystal system
# The framework has been calculated to contain at least 10.0% void space
# The void calculation uses a probe of radius 1.32A, grid spacing 0.4
#
###############################################################################

data_ZEYTAB01
_chemical_formula_moiety         '(C128 H96 Fe4 N24 O32 S8)n'
_symmetry_cell_setting           triclinic
_symmetry_space_group_name_H-M   'P 1'
_symmetry_Int_Tables_number      1
_space_group_name_Hall           'P 1'
loop_
_symmetry_equiv_pos_site_id
_symmetry_equiv_pos_as_xyz
1 x,y,z
_cell_length_a                   13.8547(4)
_cell_length_b                   13.8547(4)
_cell_length_c                   24.7954(15)
_cell_angle_alpha                90
_cell_angle_beta                 90
_cell_angle_gamma                90
_cell_volume                     4759.54
loop_
_atom_site_label
_atom_site_type_symbol
_atom_site_fract_x
_atom_site_fract_y
_atom_site_fract_z
S1 S 0.54052(17) 0.0029(2) 0.13428(17)
N1 N 0.2862(4) 0.1385(3) 0.55240(19)
C12 C 0.3408(4) 0.0000(4) 0.4761(2)
C14 C 0.2490(4) 0.0500(4) 0.5520(2)
H10 H 0.2030 0.0351 0.5780
C15 C 0.3517(5) 0.1583(4) 0.5143(3)
H11 H 0.3787 0.2197 0.5134
C16 C 0.3811(5) 0.0904(5) 0.4757(3)
H12 H 0.4275 0.1065 0.4501
Fe4 Fe 0.2500 0.2500 0.61444(4)
Fe1 Fe 0.7500 0.7500 0.11444(4)
N2 N 0.6361(3) 0.7069(3) 0.17270(17)
N3 N 0.7005(4) 0.8918(4) 0.11513(19)
O1 O 0.3377(3) 0.5515(3) 0.24862(18)
O2 O 0.3530(3) 0.6889(2) 0.29478(13)
O3 O 0.3159(3) 0.8502(3) 0.43567(13)
O4 O 0.4325(4) 0.9437(3) 0.4025(2)
C1 C 0.6351(5) 0.9390(5) 0.1221(3)
C2 C 0.5123(4) 0.7442(4) 0.2375(2)
H1 H 0.4855 0.7882 0.2615
C3 C 0.5939(4) 0.7672(4) 0.2091(2)
H2 H 0.6221 0.8272 0.2151
C4 C 0.5946(4) 0.6201(4) 0.1657(2)
H3 H 0.6223 0.5776 0.1412
C5 C 0.5126(4) 0.5909(4) 0.1933(2)
H4 H 0.4863 0.5301 0.1873
C6 C 0.4701(4) 0.6544(4) 0.2301(2)
C7 C 0.3812(4) 0.6243(4) 0.2581(2)
C8 C 0.2723(4) 0.6631(4) 0.3289(2)
H5 H 0.2887 0.6080 0.3512
H6 H 0.2166 0.6465 0.3071
C9 C 0.2500 0.7500 0.3639(3)
C10 C 0.3375(4) 0.7720(4) 0.3992(2)
H7 H 0.3550 0.7150 0.4197
H8 H 0.3919 0.7895 0.3766
C11 C 0.3691(4) 0.9294(4) 0.4342(2)
C12_2 C 0.3408(4) 1.0000(4) 0.4761(2)
C13 C 0.2735(4) 0.9785(4) 0.5156(2)
H9 H 0.2457 0.9175 0.5177
N4 N 0.2138(4) 0.3615(3) 0.55240(19)
O5 O 0.1623(3) 0.9485(3) 0.24862(18)
O6 O 0.1470(3) 0.8111(2) 0.29478(13)
O7 O 0.1841(3) 0.6498(3) 0.43567(13)
O8 O 0.0675(4) 0.5563(3) 0.4025(2)
H13 H 0.0145 0.7118 0.2615
H16 H 0.0137 0.9699 0.1873
C21 C 0.0299(4) 0.8456(4) 0.2301(2)
C22 C 0.1188(4) 0.8757(4) 0.2581(2)
C23 C 0.2277(4) 0.8369(4) 0.3289(2)
H17 H 0.2113 0.8920 0.3512
H18 H 0.2834 0.8535 0.3071
C24 C 0.1625(4) 0.7280(4) 0.3992(2)
H19 H 0.1450 0.7850 0.4197
H20 H 0.1081 0.7105 0.3766
C25 C 0.1309(4) 0.5706(4) 0.4342(2)
C26 C 0.1592(4) 0.5000(4) 0.4761(2)
C27 C 0.2265(4) 0.5215(4) 0.5156(2)
H21 H 0.2543 0.5825 0.5177
C28 C 0.2510(4) 0.4500(4) 0.5520(2)
H22 H 0.2970 0.4649 0.5780
C29 C 0.1483(5) 0.3417(4) 0.5143(3)
H23 H 0.1213 0.2803 0.5134
C30 C 0.1189(5) 0.4096(5) 0.4757(3)
H24 H 0.0725 0.3935 0.4501
S2 S 0.95948(17) 0.4971(2) 0.13428(17)
N6 N 0.7995(4) 0.6082(4) 0.11513(19)
C31 C 0.8649(5) 0.5610(5) 0.1221(3)
N7 N 0.8615(3) 0.7862(4) 0.05240(19)
N8 N 0.6385(3) 0.7138(4) 0.05240(19)
N9 N 0.8639(3) 0.7931(3) 0.17270(17)
C17 C 0.9877(4) 0.7558(4) 0.2375(2)
C18 C 0.9061(4) 0.7328(4) 0.2091(2)
H14 H 0.8779 0.6728 0.2151
C19 C 0.9054(4) 0.8799(4) 0.1657(2)
H15 H 0.8777 0.9224 0.1412
C20 C 0.9874(4) 0.9091(4) 0.1933(2)
N2_2 N 0.2931(3) 0.1361(3) 0.67270(17)
N3_2 N 0.1082(4) 0.2005(4) 0.61513(19)
C1_2 C 0.0610(5) 0.1351(5) 0.6221(3)
C2_2 C 0.2558(4) 0.0123(4) 0.7375(2)
C3_2 C 0.2328(4) 0.0939(4) 0.7091(2)
H2_2 H 0.1728 0.1221 0.7151
C4_2 C 0.3799(4) 0.0946(4) 0.6657(2)
H3_2 H 0.4224 0.1223 0.6412
C5_2 C 0.4091(4) 0.0126(4) 0.6933(2)
S2_2 S 0.5029(2) 0.45948(17) 0.63428(17)
N6_2 N 0.3918(4) 0.2995(4) 0.61513(19)
C31_2 C 0.4390(5) 0.3649(5) 0.6221(3)
N9_2 N 0.2069(3) 0.3639(3) 0.67270(17)
C13_2 C 0.0215(4) 0.7735(4) 0.0156(2)
H9_2 H 0.0825 0.7457 0.0177
C27_2 C 0.4785(4) 0.7265(4) 0.0156(2)
H21_2 H 0.4175 0.7543 0.0177
C28_2 C 0.5500(4) 0.7510(4) 0.0520(2)
H22_2 H 0.5351 0.7970 0.0780
C29_2 C 0.6583(4) 0.6483(5) 0.0143(3)
H23_2 H 0.7197 0.6213 0.0134
O1_2 O 0.4485(3) 0.8377(3) 0.74862(18)
O2_2 O 0.3111(2) 0.8530(3) 0.79478(13)
O3_2 O 0.1498(3) 0.8159(3) 0.93567(13)
O4_2 O 0.0563(3) 0.9325(4) 0.9025(2)
H1_2 H 0.2118 0.9855 0.7615
H4_2 H 0.4699 0.9863 0.6873
C6_2 C 0.3456(4) 0.9701(4) 0.7301(2)
C7_2 C 0.3757(4) 0.8812(4) 0.7581(2)
C8_2 C 0.3369(4) 0.7723(4) 0.8289(2)
H5_2 H 0.3920 0.7887 0.8512
H6_2 H 0.3535 0.7166 0.8071
C9_2 C 0.2500 0.7500 0.8639(3)
C10_2 C 0.2280(4) 0.8375(4) 0.8992(2)
H7_2 H 0.2850 0.8550 0.9197
H8_2 H 0.2105 0.8919 0.8766
C11_2 C 0.0706(4) 0.8691(4) 0.9342(2)
C12_3 C -0.0000(4) 0.8408(4) 0.9761(2)
O5_2 O 0.0515(3) 0.6623(3) 0.74862(18)
O6_2 O 0.1889(2) 0.6470(3) 0.79478(13)
O7_2 O 0.3502(3) 0.6841(3) 0.93567(13)
O8_2 O 0.4437(3) 0.5675(4) 0.9025(2)
C17_2 C 0.2442(4) 0.4877(4) 0.7375(2)
H13_2 H 0.2882 0.5145 0.7615
C18_2 C 0.2672(4) 0.4061(4) 0.7091(2)
H14_2 H 0.3272 0.3779 0.7151
C19_2 C 0.1201(4) 0.4054(4) 0.6657(2)
H15_2 H 0.0776 0.3777 0.6412
C20_2 C 0.0909(4) 0.4874(4) 0.6933(2)
H16_2 H 0.0301 0.5137 0.6873
C21_2 C 0.1544(4) 0.5299(4) 0.7301(2)
C22_2 C 0.1243(4) 0.6188(4) 0.7581(2)
C23_2 C 0.1631(4) 0.7277(4) 0.8289(2)
H17_2 H 0.1080 0.7113 0.8512
H18_2 H 0.1465 0.7834 0.8071
C24_2 C 0.2720(4) 0.6625(4) 0.8992(2)
H19_2 H 0.2150 0.6450 0.9197
H20_2 H 0.2895 0.6081 0.8766
C25_2 C 0.4294(4) 0.6309(4) 0.9342(2)
C26_2 C 0.5000(4) 0.6592(4) 0.9761(2)
C30_2 C 0.5904(5) 0.6189(5) 0.9757(3)
H24_2 H 0.6065 0.5725 0.9501
C14_2 C 0.9500(4) 0.7490(4) 0.0520(2)
H10_2 H 0.9649 0.7030 0.0780
C15_2 C 0.8417(4) 0.8517(5) 0.0143(3)
H11_2 H 0.7803 0.8787 0.0134
S1_2 S 0.9971(2) 0.04052(17) 0.63428(17)
C12_4 C 1.0000(4) 0.8408(4) 0.9761(2)
C16_2 C 0.9096(5) 0.8811(5) 0.9757(3)
H12_2 H 0.8935 0.9275 0.9501
N5 N 0.1361(3) 0.2069(3) 0.82730(17)
C17_3 C 0.0123(4) 0.2442(4) 0.7625(2)
C18_3 C 0.0939(4) 0.2672(4) 0.7909(2)
H14_3 H 0.1221 0.3272 0.7849
C19_3 C 0.0946(4) 0.1201(4) 0.8343(2)
H15_3 H 0.1223 0.0776 0.8588
C20_3 C 0.0126(4) 0.0909(4) 0.8067(2)
Fe2 Fe 0.2500 0.2500 0.88556(4)
N2_3 N 0.3639(3) 0.2931(3) 0.82730(17)
N3_3 N 0.2995(4) 0.1082(4) 0.88487(19)
O1_3 O 0.6623(3) 0.4485(3) 0.75138(18)
O2_3 O 0.6470(3) 0.3111(2) 0.70522(13)
O3_3 O 0.6841(3) 0.1498(3) 0.56433(13)
O4_3 O 0.5675(4) 0.0563(3) 0.5975(2)
C1_3 C 0.3649(5) 0.0610(5) 0.8779(3)
C2_3 C 0.4877(4) 0.2558(4) 0.7625(2)
H1_3 H 0.5145 0.2118 0.7385
C3_3 C 0.4061(4) 0.2328(4) 0.7909(2)
H2_3 H 0.3779 0.1728 0.7849
C4_3 C 0.4054(4) 0.3799(4) 0.8343(2)
H3_3 H 0.3777 0.4224 0.8588
C5_3 C 0.4874(4) 0.4091(4) 0.8067(2)
H4_3 H 0.5137 0.4699 0.8127
C6_3 C 0.5299(4) 0.3456(4) 0.7699(2)
C7_3 C 0.6188(4) 0.3757(4) 0.7419(2)
C8_3 C 0.7277(4) 0.3369(4) 0.6711(2)
H5_3 H 0.7113 0.3920 0.6488
H6_3 H 0.7834 0.3535 0.6929
C9_3 C 0.7500 0.2500 0.6361(3)
C10_3 C 0.6625(4) 0.2280(4) 0.6008(2)
H7_3 H 0.6450 0.2850 0.5803
H8_3 H 0.6081 0.2105 0.6234
C11_3 C 0.6309(4) 0.0706(4) 0.5658(2)
C12_5 C 0.6592(4) 0.0000(4) 0.5239(2)
C13_3 C 0.7265(4) 0.0215(4) 0.4844(2)
H9_3 H 0.7543 0.0825 0.4823
N4_2 N 0.7862(4) 0.6385(3) 0.44760(19)
O5_3 O 0.8377(3) 0.0515(3) 0.75138(18)
O6_3 O 0.8530(3) 0.1889(2) 0.70522(13)
O7_3 O 0.8159(3) 0.3502(3) 0.56433(13)
O8_3 O 0.9325(4) 0.4437(3) 0.5975(2)
H13_3 H 0.9855 0.2882 0.7385
H16_3 H 0.9863 0.0301 0.8127
C21_3 C 0.9701(4) 0.1544(4) 0.7699(2)
C22_3 C 0.8812(4) 0.1243(4) 0.7419(2)
C23_3 C 0.7723(4) 0.1631(4) 0.6711(2)
H17_3 H 0.7887 0.1080 0.6488
H18_3 H 0.7166 0.1465 0.6929
C24_3 C 0.8375(4) 0.2720(4) 0.6008(2)
H19_3 H 0.8550 0.2150 0.5803
H20_3 H 0.8919 0.2895 0.6234
C25_3 C 0.8691(4) 0.4294(4) 0.5658(2)
C26_3 C 0.8408(4) 0.5000(4) 0.5239(2)
C27_3 C 0.7735(4) 0.4785(4) 0.4844(2)
H21_3 H 0.7457 0.4175 0.4823
C28_3 C 0.7490(4) 0.5500(4) 0.4480(2)
H22_3 H 0.7030 0.5351 0.4220
C29_3 C 0.8517(5) 0.6583(4) 0.4857(3)
H23_3 H 0.8787 0.7197 0.4866
C30_3 C 0.8811(5) 0.5904(5) 0.5243(3)
H24_3 H 0.9275 0.6065 0.5499
S2_3 S 0.04052(17) 0.5029(2) 0.86572(17)
N6_3 N 0.2005(4) 0.3918(4) 0.88487(19)
C31_3 C 0.1351(5) 0.4390(5) 0.8779(3)
Fe3 Fe 0.7500 0.7500 0.38556(4)
N7_2 N 0.1385(3) 0.2138(4) 0.94760(19)
N8_2 N 0.3615(3) 0.2862(4) 0.94760(19)
S1_3 S 0.45948(17) 0.9971(2) 0.86572(17)
N1_2 N 0.7138(4) 0.8615(3) 0.44760(19)
C12_6 C 0.6592(4) 1.0000(4) 0.5239(2)
C14_3 C 0.7510(4) 0.9500(4) 0.4480(2)
H10_3 H 0.7970 0.9649 0.4220
C15_3 C 0.6483(5) 0.8417(4) 0.4857(3)
H11_3 H 0.6213 0.7803 0.4866
C16_3 C 0.6189(5) 0.9096(5) 0.5243(3)
H12_3 H 0.5725 0.8935 0.5499
C14_4 C 0.0500(4) 0.2510(4) 0.9480(2)
H10_4 H 0.0351 0.2970 0.9220
C15_4 C 0.1583(4) 0.1483(5) 0.9857(3)
H11_4 H 0.2197 0.1213 0.9866
O1_4 O 0.5515(3) 0.1623(3) 0.25138(18)
O2_4 O 0.6889(2) 0.1470(3) 0.20522(13)
O3_4 O 0.8502(3) 0.1841(3) 0.06433(13)
O4_4 O 0.9437(3) 0.0675(4) 0.0975(2)
H1_4 H 0.7882 0.0145 0.2385
H4_4 H 0.5301 0.0137 0.3127
C6_4 C 0.6544(4) 0.0299(4) 0.2699(2)
C7_4 C 0.6243(4) 0.1188(4) 0.2419(2)
C8_4 C 0.6631(4) 0.2277(4) 0.1711(2)
H5_4 H 0.6080 0.2113 0.1488
H6_4 H 0.6465 0.2834 0.1929
C9_4 C 0.7500 0.2500 0.1361(3)
C10_4 C 0.7720(4) 0.1625(4) 0.1008(2)
H7_4 H 0.7150 0.1450 0.0803
H8_4 H 0.7895 0.1081 0.1234
C11_4 C 0.9294(4) 0.1309(4) 0.0658(2)
C12_7 C 1.0000(4) 0.1592(4) 0.0239(2)
N5_2 N 0.7931(3) 0.6361(3) 0.32730(17)
O5_4 O 0.9485(3) 0.3377(3) 0.25138(18)
O6_4 O 0.8111(2) 0.3530(3) 0.20522(13)
O7_4 O 0.6498(3) 0.3159(3) 0.06433(13)
O8_4 O 0.5563(3) 0.4325(4) 0.0975(2)
C17_4 C 0.7558(4) 0.5123(4) 0.2625(2)
H13_4 H 0.7118 0.4855 0.2385
C18_4 C 0.7328(4) 0.5939(4) 0.2909(2)
H14_4 H 0.6728 0.6221 0.2849
C19_4 C 0.8799(4) 0.5946(4) 0.3343(2)
H15_4 H 0.9224 0.6223 0.3588
C20_4 C 0.9091(4) 0.5126(4) 0.3067(2)
H16_4 H 0.9699 0.4863 0.3127
C21_4 C 0.8456(4) 0.4701(4) 0.2699(2)
C22_4 C 0.8757(4) 0.3812(4) 0.2419(2)
C23_4 C 0.8369(4) 0.2723(4) 0.1711(2)
H17_4 H 0.8920 0.2887 0.1488
H18_4 H 0.8535 0.2166 0.1929
C24_4 C 0.7280(4) 0.3375(4) 0.1008(2)
H19_4 H 0.7850 0.3550 0.0803
H20_4 H 0.7105 0.3919 0.1234
C25_4 C 0.5706(4) 0.3691(4) 0.0658(2)
C26_4 C 0.5000(4) 0.3408(4) 0.0239(2)
C30_4 C 0.4096(5) 0.3811(5) 0.0243(3)
H24_4 H 0.3935 0.4275 0.0499
C13_4 C 0.9785(4) 0.2265(4) 0.9844(2)
H9_4 H 0.9175 0.2543 0.9823
C27_4 C 0.5215(4) 0.2735(4) 0.9844(2)
H21_4 H 0.5825 0.2457 0.9823
C28_4 C 0.4500(4) 0.2490(4) 0.9480(2)
H22_4 H 0.4649 0.2030 0.9220
C29_4 C 0.3417(4) 0.3517(5) 0.9857(3)
H23_4 H 0.2803 0.3787 0.9866
N2_4 N 0.7069(3) 0.8639(3) 0.32730(17)
N3_4 N 0.8918(4) 0.7995(4) 0.38487(19)
C1_4 C 0.9390(5) 0.8649(5) 0.3779(3)
C2_4 C 0.7442(4) 0.9877(4) 0.2625(2)
C3_4 C 0.7672(4) 0.9061(4) 0.2909(2)
H2_4 H 0.8272 0.8779 0.2849
C4_4 C 0.6201(4) 0.9054(4) 0.3343(2)
H3_4 H 0.5776 0.8777 0.3588
C5_4 C 0.5909(4) 0.9874(4) 0.3067(2)
S2_4 S 0.4971(2) 0.54052(17) 0.36572(17)
N6_4 N 0.6082(4) 0.7005(4) 0.38487(19)
C31_4 C 0.5610(5) 0.6351(5) 0.3779(3)
C12_8 C -0.0000(4) 0.1592(4) 0.0239(2)
C16_4 C 0.0904(5) 0.1189(5) 0.0243(3)
H12_4 H 0.1065 0.0725 0.0499
S1_4 S 0.0029(2) 0.95948(17) 0.36572(17)
loop_
_geom_bond_atom_site_label_1
_geom_bond_atom_site_label_2
_geom_bond_site_symmetry_1
_geom_bond_site_symmetry_2
N1 C14 1_555 1_555
H10 C14 1_555 1_555
C15 N1 1_555 1_555
H11 C15 1_555 1_555
C16 C12 1_555 1_555
H12 C16 1_555 1_555
Fe4 N1 1_555 1_555
C15 C16 1_555 1_555
Fe1 N2 1_555 1_555
N2 C3 1_555 1_555
N3 Fe1 1_555 1_555
O1 C7 1_555 1_555
O2 C7 1_555 1_555
O3 C10 1_555 1_555
O4 C11 1_555 1_555
C1 N3 1_555 1_555
C2 H1 1_555 1_555
C3 C2 1_555 1_555
H2 C3 1_555 1_555
C4 N2 1_555 1_555
H3 C4 1_555 1_555
C5 C4 1_555 1_555
H4 C5 1_555 1_555
C6 C2 1_555 1_555
C7 C6 1_555 1_555
C8 O2 1_555 1_555
H5 C8 1_555 1_555
H6 C8 1_555 1_555
C9 C8 1_555 1_555
C10 C9 1_555 1_555
H7 C10 1_555 1_555
H8 C10 1_555 1_555
C11 O3 1_555 1_555
C12_2 C11 1_555 1_555
C13 C12_2 1_555 1_555
H9 C13 1_555 1_555
N4 C28 1_555 1_555
O5 C22 1_555 1_555
O6 C22 1_555 1_555
O7 C24 1_555 1_555
O8 C25 1_555 1_555
C22 C21 1_555 1_555
C23 C9 1_555 1_555
H17 C23 1_555 1_555
H18 C23 1_555 1_555
C24 C9 1_555 1_555
H19 C24 1_555 1_555
H20 C24 1_555 1_555
C25 O7 1_555 1_555
C26 C25 1_555 1_555
C27 C26 1_555 1_555
H21 C27 1_555 1_555
C28 C27 1_555 1_555
H22 C28 1_555 1_555
C29 N4 1_555 1_555
H23 C29 1_555 1_555
C30 C26 1_555 1_555
H24 C30 1_555 1_555
S2 C31 1_555 1_555
N6 Fe1 1_555 1_555
C31 N6 1_555 1_555
Fe4 N4 1_555 1_555
N7 Fe1 1_555 1_555
N8 Fe1 1_555 1_555
N9 Fe1 1_555 1_555
C5 C6 1_555 1_555
O6 C23 1_555 1_555
C29 C30 1_555 1_555
N9 C18 1_555 1_555
C18 C17 1_555 1_555
H14 C18 1_555 1_555
C19 N9 1_555 1_555
H15 C19 1_555 1_555
C20 C19 1_555 1_555
Fe4 N2_2 1_555 1_555
N2_2 C3_2 1_555 1_555
N3_2 Fe4 1_555 1_555
C1_2 N3_2 1_555 1_555
C3_2 C2_2 1_555 1_555
H2_2 C3_2 1_555 1_555
C4_2 N2_2 1_555 1_555
H3_2 C4_2 1_555 1_555
C5_2 C4_2 1_555 1_555
S2_2 C31_2 1_555 1_555
N6_2 Fe4 1_555 1_555
C31_2 N6_2 1_555 1_555
N9_2 Fe4 1_555 1_555
H9_2 C13_2 1_555 1_555
N8 C28_2 1_555 1_555
H21_2 C27_2 1_555 1_555
C28_2 C27_2 1_555 1_555
H22_2 C28_2 1_555 1_555
C29_2 N8 1_555 1_555
H23_2 C29_2 1_555 1_555
O1_2 C7_2 1_555 1_555
O2_2 C7_2 1_555 1_555
O3_2 C10_2 1_555 1_555
O4_2 C11_2 1_555 1_555
C7_2 C6_2 1_555 1_555
C8_2 O2_2 1_555 1_555
H5_2 C8_2 1_555 1_555
H6_2 C8_2 1_555 1_555
C9_2 C8_2 1_555 1_555
C10_2 C9_2 1_555 1_555
H7_2 C10_2 1_555 1_555
H8_2 C10_2 1_555 1_555
C11_2 O3_2 1_555 1_555
C12_3 C11_2 1_555 1_555
N9_2 C18_2 1_555 1_555
O5_2 C22_2 1_555 1_555
O6_2 C22_2 1_555 1_555
O7_2 C24_2 1_555 1_555
O8_2 C25_2 1_555 1_555
C17_2 H13_2 1_555 1_555
C18_2 C17_2 1_555 1_555
H14_2 C18_2 1_555 1_555
C19_2 N9_2 1_555 1_555
H15_2 C19_2 1_555 1_555
C20_2 C19_2 1_555 1_555
H16_2 C20_2 1_555 1_555
C21_2 C17_2 1_555 1_555
C22_2 C21_2 1_555 1_555
C23_2 C9_2 1_555 1_555
H17_2 C23_2 1_555 1_555
H18_2 C23_2 1_555 1_555
C24_2 C9_2 1_555 1_555
H19_2 C24_2 1_555 1_555
H20_2 C24_2 1_555 1_555
C25_2 O7_2 1_555 1_555
C26_2 C25_2 1_555 1_555
C30_2 C26_2 1_555 1_555
H24_2 C30_2 1_555 1_555
O6_2 C23_2 1_555 1_555
C20_2 C21_2 1_555 1_555
N7 C14_2 1_555 1_555
H10_2 C14_2 1_555 1_555
C15_2 N7 1_555 1_555
H11_2 C15_2 1_555 1_555
C16_2 C12_4 1_555 1_555
H12_2 C16_2 1_555 1_555
N5 C18_3 1_555 1_555
C18_3 C17_3 1_555 1_555
H14_3 C18_3 1_555 1_555
C19_3 N5 1_555 1_555
H15_3 C19_3 1_555 1_555
C20_3 C19_3 1_555 1_555
Fe2 N5 1_555 1_555
Fe2 N2_3 1_555 1_555
N2_3 C3_3 1_555 1_555
N3_3 Fe2 1_555 1_555
O1_3 C7_3 1_555 1_555
O2_3 C7_3 1_555 1_555
O3_3 C10_3 1_555 1_555
O4_3 C11_3 1_555 1_555
C1_3 N3_3 1_555 1_555
C2_3 H1_3 1_555 1_555
C3_3 C2_3 1_555 1_555
H2_3 C3_3 1_555 1_555
C4_3 N2_3 1_555 1_555
H3_3 C4_3 1_555 1_555
C5_3 C4_3 1_555 1_555
H4_3 C5_3 1_555 1_555
C6_3 C2_3 1_555 1_555
C7_3 C6_3 1_555 1_555
C8_3 O2_3 1_555 1_555
H5_3 C8_3 1_555 1_555
H6_3 C8_3 1_555 1_555
C9_3 C8_3 1_555 1_555
C10_3 C9_3 1_555 1_555
H7_3 C10_3 1_555 1_555
H8_3 C10_3 1_555 1_555
C11_3 O3_3 1_555 1_555
C12_5 C11_3 1_555 1_555
C13_3 C12_5 1_555 1_555
H9_3 C13_3 1_555 1_555
N4_2 C28_3 1_555 1_555
O5_3 C22_3 1_555 1_555
O6_3 C22_3 1_555 1_555
O7_3 C24_3 1_555 1_555
O8_3 C25_3 1_555 1_555
C22_3 C21_3 1_555 1_555
C23_3 C9_3 1_555 1_555
H17_3 C23_3 1_555 1_555
H18_3 C23_3 1_555 1_555
C24_3 C9_3 1_555 1_555
H19_3 C24_3 1_555 1_555
H20_3 C24_3 1_555 1_555
C25_3 O7_3 1_555 1_555
C26_3 C25_3 1_555 1_555
C27_3 C26_3 1_555 1_555
H21_3 C27_3 1_555 1_555
C28_3 C27_3 1_555 1_555
H22_3 C28_3 1_555 1_555
C29_3 N4_2 1_555 1_555
H23_3 C29_3 1_555 1_555
C30_3 C26_3 1_555 1_555
H24_3 C30_3 1_555 1_555
S2_3 C31_3 1_555 1_555
N6_3 Fe2 1_555 1_555
C31_3 N6_3 1_555 1_555
Fe3 N4_2 1_555 1_555
N7_2 Fe2 1_555 1_555
N8_2 Fe2 1_555 1_555
C5_3 C6_3 1_555 1_555
O6_3 C23_3 1_555 1_555
C29_3 C30_3 1_555 1_555
N1_2 C14_3 1_555 1_555
H10_3 C14_3 1_555 1_555
C15_3 N1_2 1_555 1_555
H11_3 C15_3 1_555 1_555
C16_3 C12_6 1_555 1_555
H12_3 C16_3 1_555 1_555
Fe3 N1_2 1_555 1_555
C15_3 C16_3 1_555 1_555
N7_2 C14_4 1_555 1_555
H10_4 C14_4 1_555 1_555
C15_4 N7_2 1_555 1_555
H11_4 C15_4 1_555 1_555
O1_4 C7_4 1_555 1_555
O2_4 C7_4 1_555 1_555
O3_4 C10_4 1_555 1_555
O4_4 C11_4 1_555 1_555
C7_4 C6_4 1_555 1_555
C8_4 O2_4 1_555 1_555
H5_4 C8_4 1_555 1_555
H6_4 C8_4 1_555 1_555
C9_4 C8_4 1_555 1_555
C10_4 C9_4 1_555 1_555
H7_4 C10_4 1_555 1_555
H8_4 C10_4 1_555 1_555
C11_4 O3_4 1_555 1_555
C12_7 C11_4 1_555 1_555
N5_2 C18_4 1_555 1_555
O5_4 C22_4 1_555 1_555
O6_4 C22_4 1_555 1_555
O7_4 C24_4 1_555 1_555
O8_4 C25_4 1_555 1_555
C17_4 H13_4 1_555 1_555
C18_4 C17_4 1_555 1_555
H14_4 C18_4 1_555 1_555
C19_4 N5_2 1_555 1_555
H15_4 C19_4 1_555 1_555
C20_4 C19_4 1_555 1_555
H16_4 C20_4 1_555 1_555
C21_4 C17_4 1_555 1_555
C22_4 C21_4 1_555 1_555
C23_4 C9_4 1_555 1_555
H17_4 C23_4 1_555 1_555
H18_4 C23_4 1_555 1_555
C24_4 C9_4 1_555 1_555
H19_4 C24_4 1_555 1_555
H20_4 C24_4 1_555 1_555
C25_4 O7_4 1_555 1_555
C26_4 C25_4 1_555 1_555
C30_4 C26_4 1_555 1_555
H24_4 C30_4 1_555 1_555
Fe3 N5_2 1_555 1_555
O6_4 C23_4 1_555 1_555
C20_4 C21_4 1_555 1_555
H9_4 C13_4 1_555 1_555
N8_2 C28_4 1_555 1_555
H21_4 C27_4 1_555 1_555
C28_4 C27_4 1_555 1_555
H22_4 C28_4 1_555 1_555
C29_4 N8_2 1_555 1_555
H23_4 C29_4 1_555 1_555
Fe3 N2_4 1_555 1_555
N2_4 C3_4 1_555 1_555
N3_4 Fe3 1_555 1_555
C1_4 N3_4 1_555 1_555
C3_4 C2_4 1_555 1_555
H2_4 C3_4 1_555 1_555
C4_4 N2_4 1_555 1_555
H3_4 C4_4 1_555 1_555
C5_4 C4_4 1_555 1_555
S2_4 C31_4 1_555 1_555
N6_4 Fe3 1_555 1_555
C31_4 N6_4 1_555 1_555
C16_4 C12_8 1_555 1_555
H12_4 C16_4 1_555 1_555

#END
