
###############################################################################
#
# This file contains modified crystal structure data generated from the
# MOF subset of the Cambridge Structural Database (CSD) v543 
# hosted by the Cambridge Crystallographic Data Centre (CCDC).
#
# This work is licensed under the Creative Commons
# Attribution-NonCommercial-ShareAlike 4.0 International License.
# To view a copy of this license, visit
# http://creativecommons.org/licenses/by-nc-sa/4.0/
# or send a letter to
# Creative Commons, PO Box 1866, Mountain View, CA 94042, USA.
#
# CIF created using the CSD Python API on 29 September 2022
# The structure has been converted into the P1 space group
# The structure has a 3D framework
# The original CSD entry ZEYTAB is in the tetragonal crystal system
# The framework has been calculated to contain at least 10.0% void space
# The void calculation uses a probe of radius 1.32A, grid spacing 0.4
#
###############################################################################

data_ZEYTAB
_chemical_formula_moiety         '(C124 H96 Fe4 N24 O32 S8)n'
_symmetry_cell_setting           triclinic
_symmetry_space_group_name_H-M   'P 1'
_symmetry_Int_Tables_number      1
_space_group_name_Hall           'P 1'
loop_
_symmetry_equiv_pos_site_id
_symmetry_equiv_pos_as_xyz
1 x,y,z
_cell_length_a                   13.9160(17)
_cell_length_b                   13.9160(17)
_cell_length_c                   24.886(7)
_cell_angle_alpha                90
_cell_angle_beta                 90
_cell_angle_gamma                90
_cell_volume                     4819.3
loop_
_atom_site_label
_atom_site_type_symbol
_atom_site_fract_x
_atom_site_fract_y
_atom_site_fract_z
S1 S 0.95419(12) 0.00599(14) 0.36996(11)
C4 C 0.1196(3) 0.0879(3) 0.02470(19)
H3 H 0.0726 0.1034 0.0498
N1 N 0.2142(2) 0.1380(2) 0.94966(13)
C1 C 0.2527(3) 0.0505(3) 0.95001(18)
H1 H 0.2984 0.0359 0.9240
C5 C 0.1484(4) 0.1552(3) 0.98634(19)
H4 H 0.1195 0.2154 0.9868
Fe4 Fe 0.2500 0.2500 0.88711(3)
Fe1 Fe 0.7500 0.7500 0.38711(3)
O1 O 0.3410(2) 0.9478(2) 0.25121(13)
O2 O 0.35326(18) 0.80969(18) 0.20645(10)
O3 O 0.18669(18) 0.85182(19) 0.06665(9)
O4 O 0.0669(3) 0.9416(3) 0.09691(18)
N2 N 0.6354(2) 0.7929(2) 0.32791(12)
N3 N 0.7987(3) 0.8906(3) 0.38595(14)
C3 C 0.1612(3) 0.9995(3) 0.02485(15)
C6 C 0.1318(3) 0.9291(3) 0.06663(17)
C7 C 0.1633(3) 0.7742(3) 0.10245(14)
H5 H 0.1447 0.7181 0.0818
H6 H 0.1095 0.7925 0.1250
C8 C 0.2500 0.7500 0.13755(19)
C9 C 0.2741(3) 0.8362(3) 0.17238(14)
H7 H 0.2916 0.8906 0.1500
H8 H 0.2189 0.8541 0.1940
C10 C 0.3830(3) 0.8757(3) 0.24259(16)
C11 C 0.4710(3) 0.8439(3) 0.27096(15)
C12 C 0.5139(3) 0.7557(3) 0.26340(16)
H9 H 0.4883 0.7119 0.2391
C13 C 0.5947(3) 0.7334(3) 0.29221(16)
H10 H 0.6230 0.6736 0.2867
C14 C 0.5938(3) 0.8777(3) 0.33469(16)
H11 H 0.6209 0.9202 0.3592
C15 C 0.5130(3) 0.9062(3) 0.30754(15)
H12 H 0.4866 0.9666 0.3136
C16 C 0.8627(3) 0.9398(3) 0.3795(2)
O5 O 0.1590(2) 0.5522(2) 0.25121(13)
O6 O 0.14674(18) 0.69031(18) 0.20645(10)
O7 O 0.31331(18) 0.64818(19) 0.06665(9)
O8 O 0.4331(3) 0.5584(3) 0.09691(18)
C19 C 0.3388(3) 0.5005(3) 0.02485(15)
C20 C 0.3804(3) 0.4121(3) 0.02470(19)
H15 H 0.4274 0.3966 0.0498
C22 C 0.3682(3) 0.5709(3) 0.06663(17)
C23 C 0.3367(3) 0.7258(3) 0.10245(14)
H17 H 0.3553 0.7819 0.0818
H18 H 0.3905 0.7075 0.1250
C24 C 0.2259(3) 0.6638(3) 0.17238(14)
H19 H 0.2084 0.6094 0.1500
H20 H 0.2811 0.6459 0.1940
C25 C 0.1170(3) 0.6243(3) 0.24259(16)
C26 C 0.0290(3) 0.6561(3) 0.27096(15)
H21 H 0.0117 0.7881 0.2391
H24 H 0.0134 0.5334 0.3136
S2 S 0.54581(12) 0.49401(14) 0.36996(11)
N6 N 0.7013(3) 0.6094(3) 0.38595(14)
C31 C 0.6373(3) 0.5602(3) 0.3795(2)
N7 N 0.8620(2) 0.7142(2) 0.44966(13)
N8 N 0.6380(2) 0.7858(2) 0.44966(13)
N9 N 0.8646(2) 0.7071(2) 0.32791(12)
C2 C 0.2290(3) 0.9804(3) 0.98652(17)
H2 H 0.2588 0.9206 0.9852
N4 N 0.2858(2) 0.3620(2) 0.94966(13)
C17 C 0.2473(3) 0.4495(3) 0.95001(18)
H13 H 0.2016 0.4641 0.9240
C18 C 0.2710(3) 0.5196(3) 0.98652(17)
H14 H 0.2412 0.5794 0.9852
C21 C 0.3516(4) 0.3448(3) 0.98634(19)
H16 H 0.3805 0.2846 0.9868
C27 C 0.9861(3) 0.7443(3) 0.26340(16)
C28 C 0.9053(3) 0.7666(3) 0.29221(16)
H22 H 0.8770 0.8264 0.2867
C29 C 0.9062(3) 0.6223(3) 0.33469(16)
H23 H 0.8791 0.5798 0.3592
C30 C 0.9870(3) 0.5938(3) 0.30754(15)
N2_2 N 0.2071(2) 0.1354(2) 0.82791(12)
N3_2 N 0.1094(3) 0.2987(3) 0.88595(14)
C12_2 C 0.2443(3) 0.0139(3) 0.76340(16)
C13_2 C 0.2666(3) 0.0947(3) 0.79221(16)
H10_2 H 0.3264 0.1230 0.7867
C14_2 C 0.1223(3) 0.0938(3) 0.83469(16)
H11_2 H 0.0798 0.1209 0.8592
C15_2 C 0.0938(3) 0.0130(3) 0.80754(15)
C16_2 C 0.0602(3) 0.3627(3) 0.8795(2)
S2_2 S 0.50599(14) 0.04581(12) 0.86996(11)
N6_2 N 0.3906(3) 0.2013(3) 0.88595(14)
C31_2 C 0.4398(3) 0.1373(3) 0.8795(2)
N9_2 N 0.2929(2) 0.3646(2) 0.82791(12)
O1_2 O 0.0522(2) 0.8410(2) 0.75121(13)
O2_2 O 0.19031(18) 0.85326(18) 0.70645(10)
O3_2 O 0.14818(19) 0.68669(18) 0.56665(9)
O4_2 O 0.0584(3) 0.5669(3) 0.59691(18)
C2_2 C 0.0196(3) 0.7290(3) 0.48652(17)
H2_2 H 0.0794 0.7588 0.4852
C3_2 C 0.0005(3) 0.6612(3) 0.52485(15)
C6_2 C 0.0709(3) 0.6318(3) 0.56663(17)
C7_2 C 0.2258(3) 0.6633(3) 0.60245(14)
H5_2 H 0.2819 0.6447 0.5818
H6_2 H 0.2075 0.6095 0.6250
C8_2 C 0.2500 0.7500 0.63755(19)
C9_2 C 0.1638(3) 0.7741(3) 0.67238(14)
H7_2 H 0.1094 0.7916 0.6500
H8_2 H 0.1459 0.7189 0.6940
C10_2 C 0.1243(3) 0.8830(3) 0.74259(16)
C11_2 C 0.1561(3) 0.9710(3) 0.77096(15)
H9_2 H 0.2881 0.9883 0.7391
H12_2 H 0.0334 0.9866 0.8136
O5_2 O 0.4478(2) 0.6590(2) 0.75121(13)
O6_2 O 0.30969(18) 0.64674(18) 0.70645(10)
O7_2 O 0.35182(19) 0.81331(18) 0.56665(9)
O8_2 O 0.4416(3) 0.9331(3) 0.59691(18)
C17_2 C 0.5505(3) 0.7473(3) 0.45001(18)
H13_2 H 0.5359 0.7016 0.4240
C18_2 C 0.4804(3) 0.7710(3) 0.48652(17)
H14_2 H 0.4206 0.7412 0.4852
C19_2 C 0.4995(3) 0.8388(3) 0.52485(15)
C20_2 C 0.5879(3) 0.8804(3) 0.52470(19)
H15_2 H 0.6034 0.9274 0.5498
C21_2 C 0.6552(3) 0.8516(4) 0.48634(19)
H16_2 H 0.7154 0.8805 0.4868
C22_2 C 0.4291(3) 0.8682(3) 0.56663(17)
C23_2 C 0.2742(3) 0.8367(3) 0.60245(14)
H17_2 H 0.2181 0.8553 0.5818
H18_2 H 0.2925 0.8905 0.6250
C24_2 C 0.3362(3) 0.7259(3) 0.67238(14)
H19_2 H 0.3906 0.7084 0.6500
H20_2 H 0.3541 0.7811 0.6940
C25_2 C 0.3757(3) 0.6170(3) 0.74259(16)
C26_2 C 0.3439(3) 0.5290(3) 0.77096(15)
C27_2 C 0.2557(3) 0.4861(3) 0.76340(16)
H21_2 H 0.2119 0.5117 0.7391
C28_2 C 0.2334(3) 0.4053(3) 0.79221(16)
H22_2 H 0.1736 0.3770 0.7867
C29_2 C 0.3777(3) 0.4062(3) 0.83469(16)
H23_2 H 0.4202 0.3791 0.8592
C30_2 C 0.4062(3) 0.4870(3) 0.80754(15)
H24_2 H 0.4666 0.5134 0.8136
S1_2 S 0.99401(14) 0.45419(12) 0.86996(11)
C1_2 C 0.9495(3) 0.7527(3) 0.45001(18)
H1_2 H 0.9641 0.7984 0.4240
C4_2 C 0.9121(3) 0.6196(3) 0.52470(19)
H3_2 H 0.8966 0.5726 0.5498
C5_2 C 0.8448(3) 0.6484(4) 0.48634(19)
H4_2 H 0.7846 0.6195 0.4868
N5 N 0.1354(2) 0.2929(2) 0.67209(12)
C27_3 C 0.0139(3) 0.2557(3) 0.73660(16)
C28_3 C 0.0947(3) 0.2334(3) 0.70779(16)
H22_3 H 0.1230 0.1736 0.7133
C29_3 C 0.0938(3) 0.3777(3) 0.66531(16)
H23_3 H 0.1209 0.4202 0.6408
C30_3 C 0.0130(3) 0.4062(3) 0.69246(15)
Fe2 Fe 0.2500 0.2500 0.61289(3)
C2_3 C 0.7710(3) 0.0196(3) 0.01348(17)
H2_3 H 0.7412 0.0794 0.0148
N4_2 N 0.7142(2) 0.6380(2) 0.05034(13)
C17_3 C 0.7527(3) 0.5505(3) 0.04999(18)
H13_3 H 0.7984 0.5359 0.0760
C18_3 C 0.7290(3) 0.4804(3) 0.01348(17)
H14_3 H 0.7588 0.4206 0.0148
C21_3 C 0.6484(4) 0.6552(3) 0.01366(19)
H16_3 H 0.6195 0.7154 0.0132
Fe3 Fe 0.7500 0.7500 0.11289(3)
O1_3 O 0.6590(2) 0.0522(2) 0.74879(13)
O2_3 O 0.64674(18) 0.19031(18) 0.79355(10)
O3_3 O 0.81331(18) 0.14818(19) 0.93335(9)
O4_3 O 0.9331(3) 0.0584(3) 0.90309(18)
N2_3 N 0.3646(2) 0.2071(2) 0.67209(12)
N3_3 N 0.2013(3) 0.1094(3) 0.61405(14)
C3_3 C 0.8388(3) 0.0005(3) 0.97515(15)
C6_3 C 0.8682(3) 0.0709(3) 0.93337(17)
C7_3 C 0.8367(3) 0.2258(3) 0.89755(14)
H5_3 H 0.8553 0.2819 0.9182
H6_3 H 0.8905 0.2075 0.8750
C8_3 C 0.7500 0.2500 0.86245(19)
C9_3 C 0.7259(3) 0.1638(3) 0.82762(14)
H7_3 H 0.7084 0.1094 0.8500
H8_3 H 0.7811 0.1459 0.8060
C10_3 C 0.6170(3) 0.1243(3) 0.75741(16)
C11_3 C 0.5290(3) 0.1561(3) 0.72904(15)
C12_3 C 0.4861(3) 0.2443(3) 0.73660(16)
H9_3 H 0.5117 0.2881 0.7609
C13_3 C 0.4053(3) 0.2666(3) 0.70779(16)
H10_3 H 0.3770 0.3264 0.7133
C14_3 C 0.4062(3) 0.1223(3) 0.66531(16)
H11_3 H 0.3791 0.0798 0.6408
C15_3 C 0.4870(3) 0.0938(3) 0.69246(15)
H12_3 H 0.5134 0.0334 0.6864
C16_3 C 0.1373(3) 0.0602(3) 0.6205(2)
O5_3 O 0.8410(2) 0.4478(2) 0.74879(13)
O6_3 O 0.85326(18) 0.30969(18) 0.79355(10)
O7_3 O 0.68669(18) 0.35182(19) 0.93335(9)
O8_3 O 0.5669(3) 0.4416(3) 0.90309(18)
C19_3 C 0.6612(3) 0.4995(3) 0.97515(15)
C20_3 C 0.6196(3) 0.5879(3) 0.97530(19)
H15_3 H 0.5726 0.6034 0.9502
C22_3 C 0.6318(3) 0.4291(3) 0.93337(17)
C23_3 C 0.6633(3) 0.2742(3) 0.89755(14)
H17_3 H 0.6447 0.2181 0.9182
H18_3 H 0.6095 0.2925 0.8750
C24_3 C 0.7741(3) 0.3362(3) 0.82762(14)
H19_3 H 0.7916 0.3906 0.8500
H20_3 H 0.7189 0.3541 0.8060
C25_3 C 0.8830(3) 0.3757(3) 0.75741(16)
C26_3 C 0.9710(3) 0.3439(3) 0.72904(15)
H21_3 H 0.9883 0.2119 0.7609
H24_3 H 0.9866 0.4666 0.6864
S2_3 S 0.45419(12) 0.50599(14) 0.63004(11)
N6_3 N 0.2987(3) 0.3906(3) 0.61405(14)
C31_3 C 0.3627(3) 0.4398(3) 0.6205(2)
N7_2 N 0.1380(2) 0.2858(2) 0.55034(13)
N8_2 N 0.3620(2) 0.2142(2) 0.55034(13)
N1_2 N 0.7858(2) 0.8620(2) 0.05034(13)
C1_3 C 0.7473(3) 0.9495(3) 0.04999(18)
H1_3 H 0.7016 0.9641 0.0760
C5_3 C 0.8516(4) 0.8448(3) 0.01366(19)
H4_3 H 0.8805 0.7846 0.0132
C1_4 C 0.0505(3) 0.2473(3) 0.54999(18)
H1_4 H 0.0359 0.2016 0.5760
C4_3 C 0.0879(3) 0.3804(3) 0.47530(19)
H3_3 H 0.1034 0.4274 0.4502
C5_4 C 0.1552(3) 0.3516(4) 0.51366(19)
H4_4 H 0.2154 0.3805 0.5132
S1_3 S 0.00599(14) 0.54581(12) 0.13004(11)
O1_4 O 0.9478(2) 0.1590(2) 0.24879(13)
O2_4 O 0.80969(18) 0.14674(18) 0.29355(10)
O3_4 O 0.85182(19) 0.31331(18) 0.43335(9)
O4_4 O 0.9416(3) 0.4331(3) 0.40309(18)
C2_4 C 0.9804(3) 0.2710(3) 0.51348(17)
H2_4 H 0.9206 0.2412 0.5148
C3_4 C 0.9995(3) 0.3388(3) 0.47515(15)
C6_4 C 0.9291(3) 0.3682(3) 0.43337(17)
C7_4 C 0.7742(3) 0.3367(3) 0.39755(14)
H5_4 H 0.7181 0.3553 0.4182
H6_4 H 0.7925 0.3905 0.3750
C8_4 C 0.7500 0.2500 0.36245(19)
C9_4 C 0.8362(3) 0.2259(3) 0.32762(14)
H7_4 H 0.8906 0.2084 0.3500
H8_4 H 0.8541 0.2811 0.3060
C10_4 C 0.8757(3) 0.1170(3) 0.25741(16)
C11_4 C 0.8439(3) 0.0290(3) 0.22904(15)
H9_4 H 0.7119 0.0117 0.2609
H12_4 H 0.9666 0.0134 0.1864
O5_4 O 0.5522(2) 0.3410(2) 0.24879(13)
O6_4 O 0.69031(18) 0.35326(18) 0.29355(10)
O7_4 O 0.64818(19) 0.18669(18) 0.43335(9)
O8_4 O 0.5584(3) 0.0669(3) 0.40309(18)
N5_2 N 0.7071(2) 0.6354(2) 0.17209(12)
C17_4 C 0.4495(3) 0.2527(3) 0.54999(18)
H13_4 H 0.4641 0.2984 0.5760
C18_4 C 0.5196(3) 0.2290(3) 0.51348(17)
H14_4 H 0.5794 0.2588 0.5148
C19_4 C 0.5005(3) 0.1612(3) 0.47515(15)
C20_4 C 0.4121(3) 0.1196(3) 0.47530(19)
H15_4 H 0.3966 0.0726 0.4502
C21_4 C 0.3448(3) 0.1484(4) 0.51366(19)
H16_4 H 0.2846 0.1195 0.5132
C22_4 C 0.5709(3) 0.1318(3) 0.43337(17)
C23_4 C 0.7258(3) 0.1633(3) 0.39755(14)
H17_4 H 0.7819 0.1447 0.4182
H18_4 H 0.7075 0.1095 0.3750
C24_4 C 0.6638(3) 0.2741(3) 0.32762(14)
H19_4 H 0.6094 0.2916 0.3500
H20_4 H 0.6459 0.2189 0.3060
C25_4 C 0.6243(3) 0.3830(3) 0.25741(16)
C26_4 C 0.6561(3) 0.4710(3) 0.22904(15)
C27_4 C 0.7443(3) 0.5139(3) 0.23660(16)
H21_4 H 0.7881 0.4883 0.2609
C28_4 C 0.7666(3) 0.5947(3) 0.20779(16)
H22_4 H 0.8264 0.6230 0.2133
C29_4 C 0.6223(3) 0.5938(3) 0.16531(16)
H23_4 H 0.5798 0.6209 0.1408
C30_4 C 0.5938(3) 0.5130(3) 0.19246(15)
H24_4 H 0.5334 0.4866 0.1864
N2_4 N 0.7929(2) 0.8646(2) 0.17209(12)
N3_4 N 0.8906(3) 0.7013(3) 0.11405(14)
C12_4 C 0.7557(3) 0.9861(3) 0.23660(16)
C13_4 C 0.7334(3) 0.9053(3) 0.20779(16)
H10_4 H 0.6736 0.8770 0.2133
C14_4 C 0.8777(3) 0.9062(3) 0.16531(16)
H11_4 H 0.9202 0.8791 0.1408
C15_4 C 0.9062(3) 0.9870(3) 0.19246(15)
C16_4 C 0.9398(3) 0.6373(3) 0.1205(2)
S2_4 S 0.49401(14) 0.95419(12) 0.13004(11)
N6_4 N 0.6094(3) 0.7987(3) 0.11405(14)
C31_4 C 0.5602(3) 0.8627(3) 0.1205(2)
S1_4 S 0.04581(12) 0.99401(14) 0.63004(11)
C4_4 C 0.8804(3) 0.9121(3) 0.97530(19)
H3_4 H 0.9274 0.8966 0.9502
loop_
_geom_bond_atom_site_label_1
_geom_bond_atom_site_label_2
_geom_bond_site_symmetry_1
_geom_bond_site_symmetry_2
H3 C4 1_555 1_555
N1 C1 1_555 1_555
C1 H1 1_555 1_555
C5 N1 1_555 1_555
H4 C5 1_555 1_555
Fe4 N1 1_555 1_555
Fe1 N2 1_555 1_555
O1 C10 1_555 1_555
O2 C9 1_555 1_555
O3 C6 1_555 1_555
O4 C6 1_555 1_555
N2 C13 1_555 1_555
N3 Fe1 1_555 1_555
C6 C3 1_555 1_555
C7 O3 1_555 1_555
H5 C7 1_555 1_555
H6 C7 1_555 1_555
C8 C7 1_555 1_555
C9 C8 1_555 1_555
H7 C9 1_555 1_555
H8 C9 1_555 1_555
C10 O2 1_555 1_555
C11 C10 1_555 1_555
C12 C11 1_555 1_555
H9 C12 1_555 1_555
C13 C12 1_555 1_555
H10 C13 1_555 1_555
C14 N2 1_555 1_555
H11 C14 1_555 1_555
C15 C11 1_555 1_555
H12 C15 1_555 1_555
C16 N3 1_555 1_555
O5 C25 1_555 1_555
O6 C24 1_555 1_555
O7 C22 1_555 1_555
O8 C22 1_555 1_555
C20 C19 1_555 1_555
H15 C20 1_555 1_555
C22 C19 1_555 1_555
C23 C8 1_555 1_555
H17 C23 1_555 1_555
H18 C23 1_555 1_555
C24 C8 1_555 1_555
H19 C24 1_555 1_555
H20 C24 1_555 1_555
C25 O6 1_555 1_555
C26 C25 1_555 1_555
S2 C31 1_555 1_555
N6 Fe1 1_555 1_555
C31 N6 1_555 1_555
N7 Fe1 1_555 1_555
N8 Fe1 1_555 1_555
N9 Fe1 1_555 1_555
C14 C15 1_555 1_555
O7 C23 1_555 1_555
H2 C2 1_555 1_555
N4 C17 1_555 1_555
C17 H13 1_555 1_555
C18 C17 1_555 1_555
H14 C18 1_555 1_555
C21 N4 1_555 1_555
H16 C21 1_555 1_555
Fe4 N4 1_555 1_555
N9 C28 1_555 1_555
C28 C27 1_555 1_555
H22 C28 1_555 1_555
C29 N9 1_555 1_555
H23 C29 1_555 1_555
C29 C30 1_555 1_555
Fe4 N2_2 1_555 1_555
N2_2 C13_2 1_555 1_555
N3_2 Fe4 1_555 1_555
C13_2 C12_2 1_555 1_555
H10_2 C13_2 1_555 1_555
C14_2 N2_2 1_555 1_555
H11_2 C14_2 1_555 1_555
C16_2 N3_2 1_555 1_555
S2_2 C31_2 1_555 1_555
N6_2 Fe4 1_555 1_555
C31_2 N6_2 1_555 1_555
N9_2 Fe4 1_555 1_555
C14_2 C15_2 1_555 1_555
O1_2 C10_2 1_555 1_555
O2_2 C9_2 1_555 1_555
O3_2 C6_2 1_555 1_555
O4_2 C6_2 1_555 1_555
H2_2 C2_2 1_555 1_555
C3_2 C2_2 1_555 1_555
C6_2 C3_2 1_555 1_555
C7_2 O3_2 1_555 1_555
H5_2 C7_2 1_555 1_555
H6_2 C7_2 1_555 1_555
C8_2 C7_2 1_555 1_555
C9_2 C8_2 1_555 1_555
H7_2 C9_2 1_555 1_555
H8_2 C9_2 1_555 1_555
C10_2 O2_2 1_555 1_555
C11_2 C10_2 1_555 1_555
O5_2 C25_2 1_555 1_555
O6_2 C24_2 1_555 1_555
O7_2 C22_2 1_555 1_555
O8_2 C22_2 1_555 1_555
N8 C17_2 1_555 1_555
N9_2 C28_2 1_555 1_555
C17_2 H13_2 1_555 1_555
C18_2 C17_2 1_555 1_555
H14_2 C18_2 1_555 1_555
C19_2 C18_2 1_555 1_555
C20_2 C19_2 1_555 1_555
H15_2 C20_2 1_555 1_555
C21_2 N8 1_555 1_555
H16_2 C21_2 1_555 1_555
C22_2 C19_2 1_555 1_555
C23_2 C8_2 1_555 1_555
H17_2 C23_2 1_555 1_555
H18_2 C23_2 1_555 1_555
C24_2 C8_2 1_555 1_555
H19_2 C24_2 1_555 1_555
H20_2 C24_2 1_555 1_555
C25_2 O6_2 1_555 1_555
C26_2 C25_2 1_555 1_555
C27_2 C26_2 1_555 1_555
H21_2 C27_2 1_555 1_555
C28_2 C27_2 1_555 1_555
H22_2 C28_2 1_555 1_555
C29_2 N9_2 1_555 1_555
H23_2 C29_2 1_555 1_555
C30_2 C26_2 1_555 1_555
H24_2 C30_2 1_555 1_555
O7_2 C23_2 1_555 1_555
C20_2 C21_2 1_555 1_555
C29_2 C30_2 1_555 1_555
N7 C1_2 1_555 1_555
C1_2 H1_2 1_555 1_555
H3_2 C4_2 1_555 1_555
C5_2 N7 1_555 1_555
H4_2 C5_2 1_555 1_555
C4_2 C5_2 1_555 1_555
N5 C28_3 1_555 1_555
C28_3 C27_3 1_555 1_555
H22_3 C28_3 1_555 1_555
C29_3 N5 1_555 1_555
H23_3 C29_3 1_555 1_555
Fe2 N5 1_555 1_555
C29_3 C30_3 1_555 1_555
H2_3 C2_3 1_555 1_555
N4_2 C17_3 1_555 1_555
C17_3 H13_3 1_555 1_555
C18_3 C17_3 1_555 1_555
H14_3 C18_3 1_555 1_555
C21_3 N4_2 1_555 1_555
H16_3 C21_3 1_555 1_555
Fe3 N4_2 1_555 1_555
Fe2 N2_3 1_555 1_555
O1_3 C10_3 1_555 1_555
O2_3 C9_3 1_555 1_555
O3_3 C6_3 1_555 1_555
O4_3 C6_3 1_555 1_555
N2_3 C13_3 1_555 1_555
N3_3 Fe2 1_555 1_555
C6_3 C3_3 1_555 1_555
C7_3 O3_3 1_555 1_555
H5_3 C7_3 1_555 1_555
H6_3 C7_3 1_555 1_555
C8_3 C7_3 1_555 1_555
C9_3 C8_3 1_555 1_555
H7_3 C9_3 1_555 1_555
H8_3 C9_3 1_555 1_555
C10_3 O2_3 1_555 1_555
C11_3 C10_3 1_555 1_555
C12_3 C11_3 1_555 1_555
H9_3 C12_3 1_555 1_555
C13_3 C12_3 1_555 1_555
H10_3 C13_3 1_555 1_555
C14_3 N2_3 1_555 1_555
H11_3 C14_3 1_555 1_555
C15_3 C11_3 1_555 1_555
H12_3 C15_3 1_555 1_555
C16_3 N3_3 1_555 1_555
O5_3 C25_3 1_555 1_555
O6_3 C24_3 1_555 1_555
O7_3 C22_3 1_555 1_555
O8_3 C22_3 1_555 1_555
C20_3 C19_3 1_555 1_555
H15_3 C20_3 1_555 1_555
C22_3 C19_3 1_555 1_555
C23_3 C8_3 1_555 1_555
H17_3 C23_3 1_555 1_555
H18_3 C23_3 1_555 1_555
C24_3 C8_3 1_555 1_555
H19_3 C24_3 1_555 1_555
H20_3 C24_3 1_555 1_555
C25_3 O6_3 1_555 1_555
C26_3 C25_3 1_555 1_555
S2_3 C31_3 1_555 1_555
N6_3 Fe2 1_555 1_555
C31_3 N6_3 1_555 1_555
N7_2 Fe2 1_555 1_555
N8_2 Fe2 1_555 1_555
C14_3 C15_3 1_555 1_555
O7_3 C23_3 1_555 1_555
N1_2 C1_3 1_555 1_555
C1_3 H1_3 1_555 1_555
C5_3 N1_2 1_555 1_555
H4_3 C5_3 1_555 1_555
Fe3 N1_2 1_555 1_555
N7_2 C1_4 1_555 1_555
C1_4 H1_4 1_555 1_555
H3_3 C4_3 1_555 1_555
C5_4 N7_2 1_555 1_555
H4_4 C5_4 1_555 1_555
C4_3 C5_4 1_555 1_555
O1_4 C10_4 1_555 1_555
O2_4 C9_4 1_555 1_555
O3_4 C6_4 1_555 1_555
O4_4 C6_4 1_555 1_555
H2_4 C2_4 1_555 1_555
C3_4 C2_4 1_555 1_555
C6_4 C3_4 1_555 1_555
C7_4 O3_4 1_555 1_555
H5_4 C7_4 1_555 1_555
H6_4 C7_4 1_555 1_555
C8_4 C7_4 1_555 1_555
C9_4 C8_4 1_555 1_555
H7_4 C9_4 1_555 1_555
H8_4 C9_4 1_555 1_555
C10_4 O2_4 1_555 1_555
C11_4 C10_4 1_555 1_555
O5_4 C25_4 1_555 1_555
O6_4 C24_4 1_555 1_555
O7_4 C22_4 1_555 1_555
O8_4 C22_4 1_555 1_555
N8_2 C17_4 1_555 1_555
N5_2 C28_4 1_555 1_555
C17_4 H13_4 1_555 1_555
C18_4 C17_4 1_555 1_555
H14_4 C18_4 1_555 1_555
C19_4 C18_4 1_555 1_555
C20_4 C19_4 1_555 1_555
H15_4 C20_4 1_555 1_555
C21_4 N8_2 1_555 1_555
H16_4 C21_4 1_555 1_555
C22_4 C19_4 1_555 1_555
C23_4 C8_4 1_555 1_555
H17_4 C23_4 1_555 1_555
H18_4 C23_4 1_555 1_555
C24_4 C8_4 1_555 1_555
H19_4 C24_4 1_555 1_555
H20_4 C24_4 1_555 1_555
C25_4 O6_4 1_555 1_555
C26_4 C25_4 1_555 1_555
C27_4 C26_4 1_555 1_555
H21_4 C27_4 1_555 1_555
C28_4 C27_4 1_555 1_555
H22_4 C28_4 1_555 1_555
C29_4 N5_2 1_555 1_555
H23_4 C29_4 1_555 1_555
C30_4 C26_4 1_555 1_555
H24_4 C30_4 1_555 1_555
Fe3 N5_2 1_555 1_555
O7_4 C23_4 1_555 1_555
C20_4 C21_4 1_555 1_555
C29_4 C30_4 1_555 1_555
Fe3 N2_4 1_555 1_555
N2_4 C13_4 1_555 1_555
N3_4 Fe3 1_555 1_555
C13_4 C12_4 1_555 1_555
H10_4 C13_4 1_555 1_555
C14_4 N2_4 1_555 1_555
H11_4 C14_4 1_555 1_555
C16_4 N3_4 1_555 1_555
S2_4 C31_4 1_555 1_555
N6_4 Fe3 1_555 1_555
C31_4 N6_4 1_555 1_555
C14_4 C15_4 1_555 1_555
H3_4 C4_4 1_555 1_555

#END
