
###############################################################################
#
# This file contains modified crystal structure data generated from the
# MOF subset of the Cambridge Structural Database (CSD) v543 
# hosted by the Cambridge Crystallographic Data Centre (CCDC).
#
# This work is licensed under the Creative Commons
# Attribution-NonCommercial-ShareAlike 4.0 International License.
# To view a copy of this license, visit
# http://creativecommons.org/licenses/by-nc-sa/4.0/
# or send a letter to
# Creative Commons, PO Box 1866, Mountain View, CA 94042, USA.
#
# CIF created using the CSD Python API on 29 September 2022
# The structure has been converted into the P1 space group
# The structure has a 3D framework
# The original CSD entry ZEZHUK is in the monoclinic crystal system
# The framework has been calculated to contain at least 10.0% void space
# The void calculation uses a probe of radius 1.32A, grid spacing 0.4
#
###############################################################################

data_ZEZHUK
_chemical_formula_moiety         '(C96 H88 Cu14 N16 O40)n'
_symmetry_cell_setting           triclinic
_symmetry_space_group_name_H-M   'P 1'
_symmetry_Int_Tables_number      1
_space_group_name_Hall           'P 1'
loop_
_symmetry_equiv_pos_site_id
_symmetry_equiv_pos_as_xyz
1 x,y,z
_cell_length_a                   15.225(3)
_cell_length_b                   19.518(4)
_cell_length_c                   10.927(2)
_cell_angle_alpha                90
_cell_angle_beta                 93.42(3)
_cell_angle_gamma                90
_cell_volume                     3241.3
loop_
_atom_site_label
_atom_site_type_symbol
_atom_site_fract_x
_atom_site_fract_y
_atom_site_fract_z
C5 C 0.00748(15) 0.22260(10) 0.9290(2)
H7 H 0.0475 0.2230 0.8680
Cu7 Cu 0.03223(2) 0.07228(2) 0.97660(2)
Cu1 Cu 0.5000 0.52192(2) 0.2500
Cu2 Cu 0.53223(2) 0.42772(2) 0.47660(2)
O1 O 0.58891(8) 0.43811(7) 0.20267(11)
O2 O 0.62701(7) 0.39132(6) 0.38511(10)
O3 O 0.54857(7) 0.52250(6) 0.41892(10)
H1 H 0.5885(13) 0.5329(11) 0.4098(18)
O4 O 0.39744(8) 0.58240(7) 0.32022(11)
O5 O 0.29778(8) 0.56292(8) 0.16763(11)
C1 C 0.24674(15) 0.59133(18) 0.3616(2)
H2 H 0.1925 0.5998 0.3146
H3 H 0.2619 0.6307 0.4111
H4 H 0.2399 0.5523 0.4135
N1 N 0.90937(10) 0.25387(8) 0.05362(14)
N2 N 0.98938(9) 0.16682(7) 0.00019(13)
C2 C 0.31880(12) 0.57755(10) 0.27605(17)
C3 C 0.93061(11) 0.18772(9) 0.07259(16)
H5 H 0.9060 0.1602 0.1309
C6 C 0.84270(12) 0.29120(9) 0.11102(16)
C7 C 0.79898(12) 0.34313(10) 0.04692(16)
C8 C 0.73347(12) 0.37890(10) 0.10167(16)
H9 H 0.7044 0.4142 0.0589
C9 C 0.71046(11) 0.36312(9) 0.21825(15)
C10 C 0.75575(13) 0.31148(10) 0.28248(17)
H10 H 0.7414 0.3009 0.3619
C11 C 0.82224(14) 0.27540(11) 0.22959(18)
H11 H 0.8527 0.2410 0.2732
C12 C 0.63589(10) 0.40117(9) 0.27215(15)
Cu3 Cu 0.46777(2) 0.42772(2) 0.02340(2)
O6 O 0.41109(8) 0.43811(7) 0.29733(11)
O7 O 0.37299(7) 0.39132(6) 0.11489(10)
O8 O 0.45143(7) 0.52250(6) 0.08108(10)
H12 H 0.4115(13) 0.5329(11) 0.0902(18)
O9 O 0.60256(8) 0.58240(7) 0.17978(11)
O10 O 0.70222(8) 0.56292(8) 0.33237(11)
C13 C 0.75326(15) 0.59133(18) 0.1384(2)
H13 H 0.8075 0.5998 0.1854
H14 H 0.7381 0.6307 0.0889
H15 H 0.7601 0.5523 0.0865
N3 N 0.09063(10) 0.25387(8) 0.44638(14)
N4 N 0.01062(9) 0.16682(7) 0.49981(13)
C14 C 0.68120(12) 0.57755(10) 0.22395(17)
C15 C 0.06939(11) 0.18772(9) 0.42741(16)
H16 H 0.0940 0.1602 0.3691
C16 C 0.04104(15) 0.27614(11) 0.5394(2)
H17 H 0.0412 0.3198 0.5736
C18 C 0.15730(12) 0.29120(9) 0.38898(16)
C19 C 0.20102(12) 0.34313(10) 0.45308(16)
H19 H 0.1866 0.3539 0.5323
C20 C 0.26653(12) 0.37890(10) 0.39833(16)
H20 H 0.2956 0.4142 0.4411
C21 C 0.28954(11) 0.36312(9) 0.28175(15)
C22 C 0.24425(13) 0.31148(10) 0.21752(17)
H21 H 0.2586 0.3009 0.1381
C23 C 0.17776(14) 0.27540(11) 0.27041(18)
H22 H 0.1473 0.2410 0.2268
C24 C 0.36411(10) 0.40117(9) 0.22785(15)
Cu4 Cu 0.46777(2) 0.57228(2) 0.52340(2)
O11 O 0.45143(7) 0.47750(6) 0.58108(10)
O13 O 0.60256(8) 0.41760(7) 0.67978(11)
N6 N 0.48938(9) 0.33318(7) 0.50019(13)
C4 C 0.95896(15) 0.27614(11) 0.9606(2)
H6 H 0.9588 0.3198 0.9264
H8 H 0.8134 0.3539 0.9677
Cu5 Cu 0.53223(2) 0.57228(2) 0.97660(2)
O12 O 0.54857(7) 0.47750(6) 0.91892(10)
O14 O 0.39744(8) 0.41760(7) 0.82022(11)
N5 N 0.51062(9) 0.33318(7) 0.99981(13)
C17 C 0.99252(15) 0.22260(10) 0.5710(2)
H18 H 0.9525 0.2230 0.6320
Cu6 Cu 0.96777(2) 0.07228(2) 0.52340(2)
Cu1_2 Cu 0.0000 0.02192(2) 0.2500
O3_2 O 0.04857(7) 0.02250(6) 0.41892(10)
H1_2 H 0.0885(13) 0.0329(11) 0.4098(18)
O9_2 O 0.10256(8) 0.08240(7) 0.17978(11)
O10_2 O 0.20222(8) 0.06292(8) 0.33237(11)
C13_2 C 0.25326(15) 0.09133(18) 0.1384(2)
H13_2 H 0.3075 0.0998 0.1854
H14_2 H 0.2381 0.1307 0.0889
H15_2 H 0.2601 0.0523 0.0865
C14_2 C 0.18120(12) 0.07755(10) 0.22395(17)
Cu2_2 Cu 0.03223(2) 0.92772(2) 0.47660(2)
O1_2 O 0.08891(8) 0.93811(7) 0.20267(11)
O2_2 O 0.12701(7) 0.89132(6) 0.38511(10)
N1_2 N 0.40937(10) 0.75387(8) 0.05362(14)
N2_2 N 0.48938(9) 0.66682(7) 0.00019(13)
C3_2 C 0.43061(11) 0.68772(9) 0.07259(16)
H5_2 H 0.4060 0.6602 0.1309
C6_2 C 0.34270(12) 0.79120(9) 0.11102(16)
C7_2 C 0.29898(12) 0.84313(10) 0.04692(16)
C8_2 C 0.23347(12) 0.87890(10) 0.10167(16)
H9_2 H 0.2044 0.9142 0.0589
C9_2 C 0.21046(11) 0.86312(9) 0.21825(15)
C10_2 C 0.25575(13) 0.81148(10) 0.28248(17)
H10_2 H 0.2414 0.8009 0.3619
C11_2 C 0.32224(14) 0.77540(11) 0.22959(18)
H11_2 H 0.3527 0.7410 0.2732
C12_2 C 0.13589(10) 0.90117(9) 0.27215(15)
O13_2 O 0.10256(8) 0.91760(7) 0.67978(11)
C4_2 C 0.45896(15) 0.77614(11) 0.9606(2)
H6_2 H 0.4588 0.8198 0.9264
C5_2 C 0.50748(15) 0.72260(10) 0.9290(2)
H7_2 H 0.5475 0.7230 0.8680
H8_2 H 0.3134 0.8539 0.9677
O12_2 O 0.04857(7) 0.97750(6) 0.91892(10)
N5_2 N 0.01062(9) 0.83318(7) 0.99981(13)
Cu1_3 Cu 1.0000 0.02192(2) 0.2500
O4_2 O 0.89744(8) 0.08240(7) 0.32022(11)
O5_2 O 0.79778(8) 0.06292(8) 0.16763(11)
C1_2 C 0.74674(15) 0.09133(18) 0.3616(2)
H2_2 H 0.6925 0.0998 0.3146
H3_2 H 0.7619 0.1307 0.4111
H4_2 H 0.7399 0.0523 0.4135
C2_2 C 0.81880(12) 0.07755(10) 0.27605(17)
O8_2 O 0.95143(7) 0.02250(6) 0.08108(10)
H12_2 H 0.9115(13) 0.0329(11) 0.0902(18)
Cu3_2 Cu 0.96777(2) 0.92772(2) 0.02340(2)
O6_2 O 0.91109(8) 0.93811(7) 0.29733(11)
O7_2 O 0.87299(7) 0.89132(6) 0.11489(10)
N3_2 N 0.59063(10) 0.75387(8) 0.44638(14)
N4_2 N 0.51062(9) 0.66682(7) 0.49981(13)
C15_2 C 0.56939(11) 0.68772(9) 0.42741(16)
H16_2 H 0.5940 0.6602 0.3691
C16_2 C 0.54104(15) 0.77614(11) 0.5394(2)
H17_2 H 0.5412 0.8198 0.5736
C17_2 C 0.49252(15) 0.72260(10) 0.5710(2)
H18_2 H 0.4525 0.7230 0.6320
C18_2 C 0.65730(12) 0.79120(9) 0.38898(16)
C19_2 C 0.70102(12) 0.84313(10) 0.45308(16)
H19_2 H 0.6866 0.8539 0.5323
C20_2 C 0.76653(12) 0.87890(10) 0.39833(16)
H20_2 H 0.7956 0.9142 0.4411
C21_2 C 0.78954(11) 0.86312(9) 0.28175(15)
C22_2 C 0.74425(13) 0.81148(10) 0.21752(17)
H21_2 H 0.7586 0.8009 0.1381
C23_2 C 0.67776(14) 0.77540(11) 0.27041(18)
H22_2 H 0.6473 0.7410 0.2268
C24_2 C 0.86411(10) 0.90117(9) 0.22785(15)
O11_2 O 0.95143(7) 0.97750(6) 0.58108(10)
N6_2 N 0.98938(9) 0.83318(7) 0.50019(13)
O14_2 O 0.89744(8) 0.91760(7) 0.82022(11)
C17_3 C 0.00748(15) 0.77740(10) 0.4290(2)
H18_3 H 0.0475 0.7770 0.3680
C4_3 C 0.04104(15) 0.72386(11) 0.0394(2)
H6_3 H 0.0412 0.6802 0.0736
H8_3 H 0.1866 0.6461 0.0323
Cu1_4 Cu 0.5000 0.47808(2) 0.7500
O1_3 O 0.41109(8) 0.56189(7) 0.79733(11)
O2_3 O 0.37299(7) 0.60868(6) 0.61489(10)
H1_3 H 0.4115(13) 0.4671(11) 0.5902(18)
O5_3 O 0.70222(8) 0.43708(8) 0.83237(11)
C1_3 C 0.75326(15) 0.40867(18) 0.6384(2)
H2_3 H 0.8075 0.4002 0.6854
H3_3 H 0.7381 0.3693 0.5889
H4_3 H 0.7601 0.4477 0.5865
N1_3 N 0.09063(10) 0.74613(8) 0.94638(14)
C2_3 C 0.68120(12) 0.42245(10) 0.72395(17)
C3_3 C 0.06939(11) 0.81228(9) 0.92741(16)
H5_3 H 0.0940 0.8398 0.8691
C6_3 C 0.15730(12) 0.70880(9) 0.88898(16)
C7_3 C 0.20102(12) 0.65687(10) 0.95308(16)
C8_3 C 0.26653(12) 0.62110(10) 0.89833(16)
H9_3 H 0.2956 0.5858 0.9411
C9_3 C 0.28954(11) 0.63688(9) 0.78175(15)
C10_3 C 0.24425(13) 0.68852(10) 0.71752(17)
H10_3 H 0.2586 0.6991 0.6381
C11_3 C 0.17776(14) 0.72460(11) 0.77041(18)
H11_3 H 0.1473 0.7590 0.7268
C12_3 C 0.36411(10) 0.59883(9) 0.72785(15)
O6_3 O 0.58891(8) 0.56189(7) 0.70267(11)
O7_3 O 0.62701(7) 0.60868(6) 0.88511(10)
H12_3 H 0.5885(13) 0.4671(11) 0.9098(18)
O10_3 O 0.29778(8) 0.43708(8) 0.66763(11)
C13_3 C 0.24674(15) 0.40867(18) 0.8616(2)
H13_3 H 0.1925 0.4002 0.8146
H14_3 H 0.2619 0.3693 0.9111
H15_3 H 0.2399 0.4477 0.9135
N3_3 N 0.90937(10) 0.74613(8) 0.55362(14)
C14_3 C 0.31880(12) 0.42245(10) 0.77605(17)
C15_3 C 0.93061(11) 0.81228(9) 0.57259(16)
H16_3 H 0.9060 0.8398 0.6309
C16_3 C 0.95896(15) 0.72386(11) 0.4606(2)
H17_3 H 0.9588 0.6802 0.4264
C18_3 C 0.84270(12) 0.70880(9) 0.61102(16)
C19_3 C 0.79898(12) 0.65687(10) 0.54692(16)
H19_3 H 0.8134 0.6461 0.4677
C20_3 C 0.73347(12) 0.62110(10) 0.60167(16)
H20_3 H 0.7044 0.5858 0.5589
C21_3 C 0.71046(11) 0.63688(9) 0.71825(15)
C22_3 C 0.75575(13) 0.68852(10) 0.78248(17)
H21_3 H 0.7414 0.6991 0.8619
C23_3 C 0.82224(14) 0.72460(11) 0.72959(18)
H22_3 H 0.8527 0.7590 0.7732
C24_3 C 0.63589(10) 0.59883(9) 0.77215(15)
C5_3 C 0.99252(15) 0.77740(10) 0.0710(2)
H7_3 H 0.9525 0.7770 0.1320
O6_4 O 0.08891(8) 0.06189(7) 0.70267(11)
O7_4 O 0.12701(7) 0.10868(6) 0.88511(10)
N3_4 N 0.40937(10) 0.24613(8) 0.55362(14)
C15_4 C 0.43061(11) 0.31228(9) 0.57259(16)
H16_4 H 0.4060 0.3398 0.6309
C16_4 C 0.45896(15) 0.22386(11) 0.4606(2)
H17_4 H 0.4588 0.1802 0.4264
C17_4 C 0.50748(15) 0.27740(10) 0.4290(2)
H18_4 H 0.5475 0.2770 0.3680
C18_4 C 0.34270(12) 0.20880(9) 0.61102(16)
C19_4 C 0.29898(12) 0.15687(10) 0.54692(16)
H19_4 H 0.3134 0.1461 0.4677
C20_4 C 0.23347(12) 0.12110(10) 0.60167(16)
H20_4 H 0.2044 0.0858 0.5589
C21_4 C 0.21046(11) 0.13688(9) 0.71825(15)
C22_4 C 0.25575(13) 0.18852(10) 0.78248(17)
H21_4 H 0.2414 0.1991 0.8619
C23_4 C 0.32224(14) 0.22460(11) 0.72959(18)
H22_4 H 0.3527 0.2590 0.7732
C24_4 C 0.13589(10) 0.09883(9) 0.77215(15)
Cu1_5 Cu 0.0000 0.97808(2) 0.7500
O5_4 O 0.20222(8) 0.93708(8) 0.83237(11)
C1_4 C 0.25326(15) 0.90867(18) 0.6384(2)
H2_4 H 0.3075 0.9002 0.6854
H3_4 H 0.2381 0.8693 0.5889
H4_4 H 0.2601 0.9477 0.5865
C2_4 C 0.18120(12) 0.92245(10) 0.72395(17)
H12_4 H 0.0885(13) 0.9671(11) 0.9098(18)
C4_4 C 0.54104(15) 0.22386(11) 0.0394(2)
H6_4 H 0.5412 0.1802 0.0736
C5_4 C 0.49252(15) 0.27740(10) 0.0710(2)
H7_4 H 0.4525 0.2770 0.1320
H8_4 H 0.6866 0.1461 0.0323
O1_4 O 0.91109(8) 0.06189(7) 0.79733(11)
O2_4 O 0.87299(7) 0.10868(6) 0.61489(10)
N1_4 N 0.59063(10) 0.24613(8) 0.94638(14)
C3_4 C 0.56939(11) 0.31228(9) 0.92741(16)
H5_4 H 0.5940 0.3398 0.8691
C6_4 C 0.65730(12) 0.20880(9) 0.88898(16)
C7_4 C 0.70102(12) 0.15687(10) 0.95308(16)
C8_4 C 0.76653(12) 0.12110(10) 0.89833(16)
H9_4 H 0.7956 0.0858 0.9411
C9_4 C 0.78954(11) 0.13688(9) 0.78175(15)
C10_4 C 0.74425(13) 0.18852(10) 0.71752(17)
H10_4 H 0.7586 0.1991 0.6381
C11_4 C 0.67776(14) 0.22460(11) 0.77041(18)
H11_4 H 0.6473 0.2590 0.7268
C12_4 C 0.86411(10) 0.09883(9) 0.72785(15)
Cu1_6 Cu 1.0000 0.97808(2) 0.7500
H1_4 H 0.9115(13) 0.9671(11) 0.5902(18)
O10_4 O 0.79778(8) 0.93708(8) 0.66763(11)
C13_4 C 0.74674(15) 0.90867(18) 0.8616(2)
H13_4 H 0.6925 0.9002 0.8146
H14_4 H 0.7619 0.8693 0.9111
H15_4 H 0.7399 0.9477 0.9135
C14_4 C 0.81880(12) 0.92245(10) 0.77605(17)
loop_
_geom_bond_atom_site_label_1
_geom_bond_atom_site_label_2
_geom_bond_site_symmetry_1
_geom_bond_site_symmetry_2
H7 C5 1_555 1_555
Cu1 O1 1_555 1_555
Cu2 O2 1_555 1_555
O1 C12 1_555 1_555
O2 C12 1_555 1_555
O3 Cu1 1_555 1_555
H1 O3 1_555 1_555
O4 Cu1 1_555 1_555
O5 C2 1_555 1_555
C1 H2 1_555 1_555
H3 C1 1_555 1_555
H4 C1 1_555 1_555
N1 C3 1_555 1_555
N2 C3 1_555 1_555
C2 O4 1_555 1_555
C3 H5 1_555 1_555
C6 N1 1_555 1_555
C7 C6 1_555 1_555
C8 C7 1_555 1_555
H9 C8 1_555 1_555
C9 C8 1_555 1_555
C10 C9 1_555 1_555
H10 C10 1_555 1_555
C11 C6 1_555 1_555
H11 C11 1_555 1_555
C12 C9 1_555 1_555
Cu3 O1 1_555 1_555
O6 Cu1 1_555 1_555
O7 Cu3 1_555 1_555
O8 Cu1 1_555 1_555
H12 O8 1_555 1_555
O9 Cu1 1_555 1_555
O10 C14 1_555 1_555
C13 H13 1_555 1_555
H14 C13 1_555 1_555
H15 C13 1_555 1_555
N3 C15 1_555 1_555
N4 C15 1_555 1_555
C14 O9 1_555 1_555
C15 H16 1_555 1_555
C16 N3 1_555 1_555
H17 C16 1_555 1_555
C18 N3 1_555 1_555
C19 C18 1_555 1_555
H19 C19 1_555 1_555
C20 C19 1_555 1_555
H20 C20 1_555 1_555
C21 C20 1_555 1_555
C22 C21 1_555 1_555
H21 C22 1_555 1_555
C23 C18 1_555 1_555
H22 C23 1_555 1_555
C24 O6 1_555 1_555
Cu4 O3 1_555 1_555
O11 Cu2 1_555 1_555
O13 Cu2 1_555 1_555
N6 Cu2 1_555 1_555
Cu2 O3 1_555 1_555
Cu2 O6 1_555 1_555
O4 Cu4 1_555 1_555
C1 C2 1_555 1_555
C10 C11 1_555 1_555
Cu3 O8 1_555 1_555
O7 C24 1_555 1_555
C13 C14 1_555 1_555
C21 C24 1_555 1_555
C22 C23 1_555 1_555
Cu4 O11 1_555 1_555
H6 C4 1_555 1_555
Cu5 O12 1_555 1_555
H18 C17 1_555 1_555
O3_2 Cu1_2 1_555 1_555
H1_2 O3_2 1_555 1_555
O9_2 Cu1_2 1_555 1_555
O10_2 C14_2 1_555 1_555
C13_2 H13_2 1_555 1_555
H14_2 C13_2 1_555 1_555
H15_2 C13_2 1_555 1_555
C14_2 O9_2 1_555 1_555
C13_2 C14_2 1_555 1_555
Cu2_2 O2_2 1_555 1_555
O1_2 C12_2 1_555 1_555
O2_2 C12_2 1_555 1_555
N1_2 C3_2 1_555 1_555
N2_2 C3_2 1_555 1_555
C3_2 H5_2 1_555 1_555
C6_2 N1_2 1_555 1_555
C7_2 C6_2 1_555 1_555
C8_2 C7_2 1_555 1_555
H9_2 C8_2 1_555 1_555
C9_2 C8_2 1_555 1_555
C10_2 C9_2 1_555 1_555
H10_2 C10_2 1_555 1_555
C11_2 C6_2 1_555 1_555
H11_2 C11_2 1_555 1_555
C12_2 C9_2 1_555 1_555
O13_2 Cu2_2 1_555 1_555
C10_2 C11_2 1_555 1_555
H6_2 C4_2 1_555 1_555
H7_2 C5_2 1_555 1_555
C4_2 C5_2 1_555 1_555
O4_2 Cu1_3 1_555 1_555
O5_2 C2_2 1_555 1_555
C1_2 H2_2 1_555 1_555
H3_2 C1_2 1_555 1_555
H4_2 C1_2 1_555 1_555
C2_2 O4_2 1_555 1_555
O8_2 Cu1_3 1_555 1_555
H12_2 O8_2 1_555 1_555
O4_2 Cu6 1_555 1_555
C1_2 C2_2 1_555 1_555
O7_2 Cu3_2 1_555 1_555
N3_2 C15_2 1_555 1_555
N4_2 C15_2 1_555 1_555
C15_2 H16_2 1_555 1_555
C16_2 N3_2 1_555 1_555
H17_2 C16_2 1_555 1_555
C17_2 N4_2 1_555 1_555
H18_2 C17_2 1_555 1_555
C18_2 N3_2 1_555 1_555
C19_2 C18_2 1_555 1_555
H19_2 C19_2 1_555 1_555
C20_2 C19_2 1_555 1_555
H20_2 C20_2 1_555 1_555
C21_2 C20_2 1_555 1_555
C22_2 C21_2 1_555 1_555
H21_2 C22_2 1_555 1_555
C23_2 C18_2 1_555 1_555
H22_2 C23_2 1_555 1_555
C24_2 O6_2 1_555 1_555
Cu4 N4_2 1_555 1_555
O7_2 C24_2 1_555 1_555
C16_2 C17_2 1_555 1_555
C21_2 C24_2 1_555 1_555
C22_2 C23_2 1_555 1_555
H18_3 C17_3 1_555 1_555
H6_3 C4_3 1_555 1_555
Cu1_4 O1_3 1_555 1_555
Cu4 O2_3 1_555 1_555
O1_3 C12_3 1_555 1_555
O2_3 C12_3 1_555 1_555
O11 Cu1_4 1_555 1_555
H1_3 O11 1_555 1_555
O13 Cu1_4 1_555 1_555
O5_3 C2_3 1_555 1_555
C1_3 H2_3 1_555 1_555
H3_3 C1_3 1_555 1_555
H4_3 C1_3 1_555 1_555
N1_3 C3_3 1_555 1_555
N5_2 C3_3 1_555 1_555
C2_3 O13 1_555 1_555
C3_3 H5_3 1_555 1_555
C6_3 N1_3 1_555 1_555
C7_3 C6_3 1_555 1_555
C8_3 C7_3 1_555 1_555
H9_3 C8_3 1_555 1_555
C9_3 C8_3 1_555 1_555
C10_3 C9_3 1_555 1_555
H10_3 C10_3 1_555 1_555
C11_3 C6_3 1_555 1_555
H11_3 C11_3 1_555 1_555
C12_3 C9_3 1_555 1_555
Cu5 O1_3 1_555 1_555
O6_3 Cu1_4 1_555 1_555
O7_3 Cu5 1_555 1_555
O12 Cu1_4 1_555 1_555
H12_3 O12 1_555 1_555
O14 Cu1_4 1_555 1_555
O10_3 C14_3 1_555 1_555
C13_3 H13_3 1_555 1_555
H14_3 C13_3 1_555 1_555
H15_3 C13_3 1_555 1_555
N3_3 C15_3 1_555 1_555
N6_2 C15_3 1_555 1_555
C14_3 O14 1_555 1_555
C15_3 H16_3 1_555 1_555
C16_3 N3_3 1_555 1_555
H17_3 C16_3 1_555 1_555
C18_3 N3_3 1_555 1_555
C19_3 C18_3 1_555 1_555
H19_3 C19_3 1_555 1_555
C20_3 C19_3 1_555 1_555
H20_3 C20_3 1_555 1_555
C21_3 C20_3 1_555 1_555
C22_3 C21_3 1_555 1_555
H21_3 C22_3 1_555 1_555
C23_3 C18_3 1_555 1_555
H22_3 C23_3 1_555 1_555
C24_3 O6_3 1_555 1_555
Cu4 O6_3 1_555 1_555
C1_3 C2_3 1_555 1_555
C10_3 C11_3 1_555 1_555
O7_3 C24_3 1_555 1_555
C13_3 C14_3 1_555 1_555
C21_3 C24_3 1_555 1_555
C22_3 C23_3 1_555 1_555
H7_3 C5_3 1_555 1_555
O7_4 Cu7 1_555 1_555
N3_4 C15_4 1_555 1_555
N6 C15_4 1_555 1_555
C15_4 H16_4 1_555 1_555
C16_4 N3_4 1_555 1_555
H17_4 C16_4 1_555 1_555
C17_4 N6 1_555 1_555
H18_4 C17_4 1_555 1_555
C18_4 N3_4 1_555 1_555
C19_4 C18_4 1_555 1_555
H19_4 C19_4 1_555 1_555
C20_4 C19_4 1_555 1_555
H20_4 C20_4 1_555 1_555
C21_4 C20_4 1_555 1_555
C22_4 C21_4 1_555 1_555
H21_4 C22_4 1_555 1_555
C23_4 C18_4 1_555 1_555
H22_4 C23_4 1_555 1_555
C24_4 O6_4 1_555 1_555
O7_4 C24_4 1_555 1_555
C16_4 C17_4 1_555 1_555
C21_4 C24_4 1_555 1_555
C22_4 C23_4 1_555 1_555
O13_2 Cu1_5 1_555 1_555
O5_4 C2_4 1_555 1_555
C1_4 H2_4 1_555 1_555
H3_4 C1_4 1_555 1_555
H4_4 C1_4 1_555 1_555
C2_4 O13_2 1_555 1_555
O12_2 Cu1_5 1_555 1_555
H12_4 O12_2 1_555 1_555
C1_4 C2_4 1_555 1_555
H6_4 C4_4 1_555 1_555
H7_4 C5_4 1_555 1_555
C4_4 C5_4 1_555 1_555
Cu6 O2_4 1_555 1_555
O1_4 C12_4 1_555 1_555
O2_4 C12_4 1_555 1_555
N1_4 C3_4 1_555 1_555
N5 C3_4 1_555 1_555
C3_4 H5_4 1_555 1_555
C6_4 N1_4 1_555 1_555
C7_4 C6_4 1_555 1_555
C8_4 C7_4 1_555 1_555
H9_4 C8_4 1_555 1_555
C9_4 C8_4 1_555 1_555
C10_4 C9_4 1_555 1_555
H10_4 C10_4 1_555 1_555
C11_4 C6_4 1_555 1_555
H11_4 C11_4 1_555 1_555
C12_4 C9_4 1_555 1_555
C10_4 C11_4 1_555 1_555
O11_2 Cu1_6 1_555 1_555
H1_4 O11_2 1_555 1_555
O14_2 Cu1_6 1_555 1_555
O10_4 C14_4 1_555 1_555
C13_4 H13_4 1_555 1_555
H14_4 C13_4 1_555 1_555
H15_4 C13_4 1_555 1_555
C14_4 O14_2 1_555 1_555
C13_4 C14_4 1_555 1_555

#END
