
###############################################################################
#
# This file contains modified crystal structure data generated from the
# MOF subset of the Cambridge Structural Database (CSD) v543 
# hosted by the Cambridge Crystallographic Data Centre (CCDC).
#
# This work is licensed under the Creative Commons
# Attribution-NonCommercial-ShareAlike 4.0 International License.
# To view a copy of this license, visit
# http://creativecommons.org/licenses/by-nc-sa/4.0/
# or send a letter to
# Creative Commons, PO Box 1866, Mountain View, CA 94042, USA.
#
# CIF created using the CSD Python API on 29 September 2022
# The structure has been converted into the P1 space group
# The structure has a 3D framework
# The original CSD entry ZIDMIL is in the monoclinic crystal system
# The framework has been calculated to contain at least 10.0% void space
# The void calculation uses a probe of radius 1.32A, grid spacing 0.4
#
###############################################################################

data_ZIDMIL
_chemical_formula_moiety         '(C80 H76 Ca8 N12 O44)n'
_symmetry_cell_setting           triclinic
_symmetry_space_group_name_H-M   'P 1'
_symmetry_Int_Tables_number      1
_space_group_name_Hall           'P 1'
loop_
_symmetry_equiv_pos_site_id
_symmetry_equiv_pos_as_xyz
1 x,y,z
_cell_length_a                   14.4976(3)
_cell_length_b                   14.2168(3)
_cell_length_c                   22.7970(4)
_cell_angle_alpha                90
_cell_angle_beta                 97.8056(17)
_cell_angle_gamma                90
_cell_volume                     4655.14
loop_
_atom_site_label
_atom_site_type_symbol
_atom_site_fract_x
_atom_site_fract_y
_atom_site_fract_z
Ca1 Ca 0.24470(3) 0.75166(4) 0.25578(2)
Ca2 Ca 0.33695(4) 0.62945(4) 0.13998(2)
O2 O 0.19301(15) 0.64181(17) 0.17438(10)
O3 O 0.2740(2) 0.6630(2) 0.04596(11)
O5 O 0.64431(19) 0.37551(19) 0.25419(10)
O6 O 0.12787(19) 0.6232(2) 0.25515(10)
O7 O 0.67112(16) 0.28919(16) 0.33478(10)
O8 O 0.34786(19) 0.6679(2) 0.32280(12)
O9 O 0.38769(19) 0.6122(2) 0.24042(10)
N1 N 0.5261(2) 0.4729(2) 0.48870(11)
O10 O 0.4896(3) 0.6367(3) 0.11991(19)
H1 H 0.5356 0.5892 0.1289
H2 H 0.5171 0.6875 0.1013
C2 C 0.5715(2) 0.4205(2) 0.33669(13)
C3 C 0.4574(2) 0.5451(2) 0.33076(13)
C4 C 0.5176(2) 0.4794(2) 0.42531(13)
C6 C 0.0629(2) 0.5407(2) 0.16851(13)
O11 O 0.3355(3) 0.4701(2) 0.12951(17)
H3 H 0.3787 0.4284 0.1493
H4 H 0.2918 0.4353 0.1048
C9 C 0.5129(2) 0.4847(2) 0.30387(13)
H6 H 0.5112 0.4868 0.2630
C10 C 0.6325(2) 0.3577(2) 0.30563(13)
C11 C 0.0569(2) 0.5360(3) 0.10794(14)
H7 H 0.0984 0.5700 0.0885
C12 C 0.0022(2) 0.4869(3) 0.19761(14)
H8 H 0.0069 0.4887 0.2387
C13 C 0.3923(2) 0.6130(2) 0.29529(14)
C14 C 0.5725(2) 0.4177(2) 0.39745(14)
H9 H 0.6102 0.3744 0.4199
C15 C 0.1326(2) 0.6053(2) 0.20263(13)
C17 C 0.4600(2) 0.5424(2) 0.39184(14)
H13 H 0.4229 0.5832 0.4103
C19 C 0.1364(5) 0.7719(5) 0.0352(3)
H17 H 0.1178 0.8349 0.0432
H18 H 0.1627 0.7424 0.0716
H19 H 0.0831 0.7367 0.0178
C20 C 0.2638(6) 0.7219(5) 0.0068(3)
O16 O 0.65214(19) 0.3321(2) 0.67720(12)
O17 O 0.61231(19) 0.3878(2) 0.75958(10)
N5 N 0.4739(2) 0.5271(2) 0.51130(11)
C29 C 0.4285(2) 0.5795(2) 0.66331(13)
C30 C 0.5426(2) 0.4549(2) 0.66924(13)
C31 C 0.4824(2) 0.5206(2) 0.57469(13)
C32 C 0.4871(2) 0.5153(2) 0.69613(13)
H23 H 0.4888 0.5132 0.7370
C33 C 0.6077(2) 0.3870(2) 0.70471(14)
C34 C 0.4275(2) 0.5823(2) 0.60255(14)
H24 H 0.3898 0.6256 0.5801
C35 C 0.5400(2) 0.4576(2) 0.60816(14)
H25 H 0.5771 0.4168 0.5897
O18 O 0.35569(19) 0.62449(19) 0.74581(10)
O19 O 0.32888(16) 0.71081(16) 0.66522(10)
C36 C 0.3675(2) 0.6423(2) 0.69437(13)
Ca6 Ca 0.75530(3) 0.25166(4) 0.24422(2)
Ca7 Ca 0.75530(3) 0.24834(4) 0.74422(2)
Ca9 Ca 0.24470(3) 0.74834(4) 0.75578(2)
Ca10 Ca 0.66305(4) 0.12945(4) 0.36002(2)
Ca11 Ca 0.66305(4) 0.37055(4) 0.86002(2)
Ca12 Ca 0.33695(4) 0.87055(4) 0.63998(2)
O23 O 0.19170(18) 0.8275(2) 0.33630(10)
O25 O 0.12069(18) 0.86744(19) 0.24875(10)
O27 O 0.35569(19) 0.87551(19) 0.24581(10)
O29 O 0.32888(16) 0.78919(16) 0.16522(10)
N3 N 0.2178(6) 0.7748(4) 0.9873(3)
C16 C 0.3473(4) 0.7231(4) 0.9618(2)
H10 H 0.3988 0.7608 0.9793
H11 H 0.3224 0.7492 0.9241
H12 H 0.3683 0.6600 0.9564
C18 C 0.2035(6) 0.8449(5) 0.9421(3)
H14 H 0.1386 0.8604 0.9344
H15 H 0.2238 0.8211 0.9065
H16 H 0.2386 0.9002 0.9548
N4 N 0.0236(2) 0.5275(2) 0.98748(12)
C21 C 0.0643(2) 0.5686(2) 0.83428(14)
C22 C 0.0109(2) 0.5192(3) 0.92444(14)
C24 C 0.0712(2) 0.5719(3) 0.89521(15)
H20 H 0.1163 0.6095 0.9167
O14 O 0.19170(18) 0.6725(2) 0.83630(10)
O15 O 0.12069(18) 0.63256(19) 0.74875(10)
C28 C 0.1303(2) 0.6285(2) 0.80383(13)
O1 O 0.80830(18) 0.3275(2) 0.16370(10)
O4 O 0.87931(18) 0.36744(19) 0.25125(10)
N2 N 0.9764(2) 0.4725(2) 0.01252(12)
C1 C 0.9357(2) 0.4314(2) 0.16572(14)
C5 C 0.9891(2) 0.4808(3) 0.07556(14)
C7 C 0.8697(2) 0.3715(2) 0.19617(13)
C8 C 0.9288(2) 0.4281(3) 0.10479(15)
H5 H 0.8837 0.3905 0.0833
N6 N 0.7822(6) 0.2252(4) 0.0127(3)
C37 C 0.6527(4) 0.2769(4) 0.0382(2)
H30 H 0.6012 0.2392 0.0207
H31 H 0.6776 0.2508 0.0759
H32 H 0.6317 0.3400 0.0436
C38 C 0.7965(6) 0.1551(5) 0.0579(3)
H33 H 0.8614 0.1396 0.0656
H34 H 0.7762 0.1789 0.0935
H35 H 0.7614 0.0998 0.0452
O12 O 0.80699(15) 0.35819(17) 0.82562(10)
O13 O 0.87213(19) 0.3768(2) 0.74485(10)
C23 C 0.9371(2) 0.4593(2) 0.83149(13)
C25 C 0.9431(2) 0.4640(3) 0.89206(14)
H21 H 0.9016 0.4300 0.9115
C26 C 0.9978(2) 0.5131(3) 0.80239(14)
H22 H 0.9931 0.5113 0.7613
C27 C 0.8674(2) 0.3947(2) 0.79737(13)
O20 O 0.7260(2) 0.3370(2) 0.95404(11)
O21 O 0.5104(3) 0.3633(3) 0.88009(19)
H26 H 0.4644 0.4108 0.8711
H27 H 0.4829 0.3125 0.8987
O22 O 0.6645(3) 0.5299(2) 0.87049(17)
H28 H 0.6213 0.5716 0.8507
H29 H 0.7082 0.5647 0.8952
C39 C 0.8636(5) 0.2281(5) 0.9648(3)
H36 H 0.8822 0.1651 0.9568
H37 H 0.8373 0.2576 0.9284
H38 H 0.9169 0.2633 0.9822
C40 C 0.7362(6) 0.2781(5) 0.9932(3)
O24 O 0.80830(18) 0.1725(2) 0.66370(10)
O26 O 0.87931(18) 0.13256(19) 0.75125(10)
O28 O 0.64431(19) 0.12449(19) 0.75419(10)
O30 O 0.67112(16) 0.21081(16) 0.83478(10)
C26_2 C 0.0022(2) 0.0131(3) 0.69761(14)
H22_2 H 0.0069 0.0113 0.7387
O22_2 O 0.3355(3) 0.0299(2) 0.62951(17)
H28_2 H 0.3787 0.0716 0.6493
H29_2 H 0.2918 0.0647 0.6048
N2_2 N 0.0236(2) 0.9725(2) 0.48748(12)
C1_2 C 0.0643(2) 0.9314(2) 0.33428(14)
C5_2 C 0.0109(2) 0.9808(3) 0.42444(14)
C7_2 C 0.1303(2) 0.8715(2) 0.30383(13)
C8_2 C 0.0712(2) 0.9281(3) 0.39521(15)
H5_2 H 0.1163 0.8905 0.4167
O12_2 O 0.19301(15) 0.85819(17) 0.67438(10)
O13_2 O 0.12787(19) 0.8768(2) 0.75515(10)
C23_2 C 0.0629(2) 0.9593(2) 0.66851(13)
C25_2 C 0.0569(2) 0.9640(3) 0.60794(14)
H21_2 H 0.0984 0.9300 0.5885
C27_2 C 0.1326(2) 0.8947(2) 0.70263(13)
O20_2 O 0.2740(2) 0.8370(2) 0.54596(11)
O21_2 O 0.4896(3) 0.8633(3) 0.61991(19)
H26_2 H 0.5356 0.9108 0.6289
H27_2 H 0.5171 0.8125 0.6013
N6_2 N 0.2178(6) 0.7252(4) 0.4873(3)
C37_2 C 0.3473(4) 0.7769(4) 0.4618(2)
H30_2 H 0.3988 0.7392 0.4793
H31_2 H 0.3224 0.7508 0.4241
H32_2 H 0.3683 0.8400 0.4564
C38_2 C 0.2035(6) 0.6551(5) 0.4421(3)
H33_2 H 0.1386 0.6396 0.4344
H34_2 H 0.2238 0.6789 0.4065
H35_2 H 0.2386 0.5998 0.4548
C39_2 C 0.1364(5) 0.7281(5) 0.5352(3)
H36_2 H 0.1178 0.6651 0.5432
H37_2 H 0.1627 0.7576 0.5716
H38_2 H 0.0831 0.7633 0.5178
C40_2 C 0.2638(6) 0.7781(5) 0.5068(3)
O31 O 0.34786(19) 0.8321(2) 0.82280(12)
O32 O 0.38769(19) 0.8878(2) 0.74042(10)
O2_2 O 0.80699(15) 0.14181(17) 0.32562(10)
O3_2 O 0.7260(2) 0.1630(2) 0.45404(11)
O6_2 O 0.87213(19) 0.1232(2) 0.24485(10)
O8_2 O 0.65214(19) 0.1679(2) 0.17720(12)
O9_2 O 0.61231(19) 0.1122(2) 0.25958(10)
O10_2 O 0.5104(3) 0.1367(3) 0.38009(19)
H1_2 H 0.4644 0.0892 0.3711
H2_2 H 0.4829 0.1875 0.3987
C3_2 C 0.5426(2) 0.0451(2) 0.16924(13)
C6_2 C 0.9371(2) 0.0407(2) 0.33149(13)
N3_2 N 0.7822(6) 0.2748(4) 0.5127(3)
C11_2 C 0.9431(2) 0.0360(3) 0.39206(14)
H7_2 H 0.9016 0.0700 0.4115
C13_2 C 0.6077(2) 0.1130(2) 0.20471(14)
C15_2 C 0.8674(2) 0.1053(2) 0.29737(13)
C16_2 C 0.6527(4) 0.2231(4) 0.5382(2)
H10_2 H 0.6012 0.2608 0.5207
H11_2 H 0.6776 0.2492 0.5759
H12_2 H 0.6317 0.1600 0.5436
C17_2 C 0.5400(2) 0.0424(2) 0.10816(14)
H13_2 H 0.5771 0.0832 0.0897
C18_2 C 0.7965(6) 0.3449(5) 0.5579(3)
H14_2 H 0.8614 0.3604 0.5656
H15_2 H 0.7762 0.3211 0.5935
H16_2 H 0.7614 0.4002 0.5452
C19_2 C 0.8636(5) 0.2719(5) 0.4648(3)
H17_2 H 0.8822 0.3349 0.4568
H18_2 H 0.8373 0.2424 0.4284
H19_2 H 0.9169 0.2367 0.4822
C20_2 C 0.7362(6) 0.2219(5) 0.4932(3)
N4_2 N 0.9764(2) 0.0275(2) 0.51252(12)
C21_2 C 0.9357(2) 0.0686(2) 0.66572(14)
C22_2 C 0.9891(2) 0.0192(3) 0.57556(14)
C24_2 C 0.9288(2) 0.0719(3) 0.60479(15)
H20_2 H 0.8837 0.1095 0.5833
C28_2 C 0.8697(2) 0.1285(2) 0.69617(13)
N5_2 N 0.5261(2) 0.0271(2) 0.98870(11)
C29_2 C 0.5715(2) 0.0795(2) 0.83669(13)
C31_2 C 0.5176(2) 0.0206(2) 0.92531(13)
C32_2 C 0.5129(2) 0.0153(2) 0.80387(13)
H23_2 H 0.5112 0.0132 0.7630
C34_2 C 0.5725(2) 0.0823(2) 0.89745(14)
H24_2 H 0.6102 0.1256 0.9199
C36_2 C 0.6325(2) 0.1423(2) 0.80563(13)
N1_2 N 0.4739(2) 0.9729(2) 0.01130(11)
C2_2 C 0.4285(2) 0.9205(2) 0.16331(13)
C4_2 C 0.4824(2) 0.9794(2) 0.07469(13)
O11_2 O 0.6645(3) 0.9701(2) 0.37049(17)
H3_2 H 0.6213 0.9284 0.3507
H4_2 H 0.7082 0.9353 0.3952
C9_2 C 0.4871(2) 0.9847(2) 0.19613(13)
H6_2 H 0.4888 0.9868 0.2370
C10_2 C 0.3675(2) 0.8577(2) 0.19437(13)
C12_2 C 0.9978(2) 0.9869(3) 0.30239(14)
H8_2 H 0.9931 0.9887 0.2613
C14_2 C 0.4275(2) 0.9177(2) 0.10255(14)
H9_2 H 0.3898 0.8744 0.0801
C30_2 C 0.4574(2) 0.9549(2) 0.83076(13)
C33_2 C 0.3923(2) 0.8870(2) 0.79529(14)
C35_2 C 0.4600(2) 0.9576(2) 0.89184(14)
H25_2 H 0.4229 0.9168 0.9103
loop_
_geom_bond_atom_site_label_1
_geom_bond_atom_site_label_2
_geom_bond_site_symmetry_1
_geom_bond_site_symmetry_2
Ca1 O2 1_555 1_555
Ca2 O2 1_555 1_555
O2 C15 1_555 1_555
O3 Ca2 1_555 1_555
O5 C10 1_555 1_555
O6 Ca1 1_555 1_555
O7 C10 1_555 1_555
O8 Ca1 1_555 1_555
O9 Ca2 1_555 1_555
N1 C4 1_555 1_555
O10 Ca2 1_555 1_555
H1 O10 1_555 1_555
H2 O10 1_555 1_555
C2 C9 1_555 1_555
C3 C9 1_555 1_555
C4 C14 1_555 1_555
C6 C11 1_555 1_555
O11 Ca2 1_555 1_555
H3 O11 1_555 1_555
H4 O11 1_555 1_555
C9 H6 1_555 1_555
C10 C2 1_555 1_555
H7 C11 1_555 1_555
H8 C12 1_555 1_555
C13 O8 1_555 1_555
C14 C2 1_555 1_555
H9 C14 1_555 1_555
C15 O6 1_555 1_555
C17 C3 1_555 1_555
H13 C17 1_555 1_555
H17 C19 1_555 1_555
H18 C19 1_555 1_555
H19 C19 1_555 1_555
C20 O3 1_555 1_555
O16 C33 1_555 1_555
O17 C33 1_555 1_555
N5 N1 1_555 1_555
C29 C32 1_555 1_555
C30 C32 1_555 1_555
C31 N5 1_555 1_555
C32 H23 1_555 1_555
C33 C30 1_555 1_555
C34 C29 1_555 1_555
H24 C34 1_555 1_555
C35 C30 1_555 1_555
H25 C35 1_555 1_555
O18 C36 1_555 1_555
O19 C36 1_555 1_555
C36 C29 1_555 1_555
Ca6 O5 1_555 1_555
Ca7 O16 1_555 1_555
Ca9 O18 1_555 1_555
Ca10 O7 1_555 1_555
Ca11 O17 1_555 1_555
Ca12 O19 1_555 1_555
O23 Ca1 1_555 1_555
O25 Ca1 1_555 1_555
O27 Ca1 1_555 1_555
O29 Ca1 1_555 1_555
Ca2 O29 1_555 1_555
O7 Ca6 1_555 1_555
O9 C13 1_555 1_555
C3 C13 1_555 1_555
C4 C17 1_555 1_555
C6 C12 1_555 1_555
C6 C15 1_555 1_555
C31 C34 1_555 1_555
C31 C35 1_555 1_555
O19 Ca9 1_555 1_555
N3 C18 1_555 1_555
C16 H10 1_555 1_555
H11 C16 1_555 1_555
H12 C16 1_555 1_555
C18 H14 1_555 1_555
H15 C18 1_555 1_555
H16 C18 1_555 1_555
C21 C24 1_555 1_555
C22 N4 1_555 1_555
C24 C22 1_555 1_555
H20 C24 1_555 1_555
O14 C28 1_555 1_555
O15 C28 1_555 1_555
C28 C21 1_555 1_555
Ca9 O14 1_555 1_555
O15 Ca9 1_555 1_555
O1 C7 1_555 1_555
O4 C7 1_555 1_555
N2 C5 1_555 1_555
C1 C7 1_555 1_555
C5 C8 1_555 1_555
C8 C1 1_555 1_555
H5 C8 1_555 1_555
N6 C38 1_555 1_555
C37 H30 1_555 1_555
H31 C37 1_555 1_555
H32 C37 1_555 1_555
C38 H33 1_555 1_555
H34 C38 1_555 1_555
H35 C38 1_555 1_555
Ca6 O1 1_555 1_555
O4 Ca6 1_555 1_555
O12 C27 1_555 1_555
O13 C27 1_555 1_555
C23 C25 1_555 1_555
H21 C25 1_555 1_555
H22 C26 1_555 1_555
C27 C23 1_555 1_555
Ca7 O12 1_555 1_555
Ca11 O12 1_555 1_555
O20 Ca11 1_555 1_555
O21 Ca11 1_555 1_555
H26 O21 1_555 1_555
H27 O21 1_555 1_555
O22 Ca11 1_555 1_555
H28 O22 1_555 1_555
H29 O22 1_555 1_555
H36 C39 1_555 1_555
H37 C39 1_555 1_555
H38 C39 1_555 1_555
C40 O20 1_555 1_555
O24 Ca7 1_555 1_555
O26 Ca7 1_555 1_555
O28 Ca7 1_555 1_555
O30 Ca7 1_555 1_555
O13 Ca7 1_555 1_555
C23 C26 1_555 1_555
Ca11 O30 1_555 1_555
H22_2 C26_2 1_555 1_555
H28_2 O22_2 1_555 1_555
H29_2 O22_2 1_555 1_555
O23 C7_2 1_555 1_555
O25 C7_2 1_555 1_555
N2_2 C5_2 1_555 1_555
C1_2 C7_2 1_555 1_555
C5_2 C8_2 1_555 1_555
C8_2 C1_2 1_555 1_555
H5_2 C8_2 1_555 1_555
O12_2 C27_2 1_555 1_555
O13_2 C27_2 1_555 1_555
C23_2 C25_2 1_555 1_555
H21_2 C25_2 1_555 1_555
C27_2 C23_2 1_555 1_555
Ca9 O12_2 1_555 1_555
Ca12 O12_2 1_555 1_555
O20_2 Ca12 1_555 1_555
O21_2 Ca12 1_555 1_555
H26_2 O21_2 1_555 1_555
H27_2 O21_2 1_555 1_555
N6_2 C38_2 1_555 1_555
C37_2 H30_2 1_555 1_555
H31_2 C37_2 1_555 1_555
H32_2 C37_2 1_555 1_555
C38_2 H33_2 1_555 1_555
H34_2 C38_2 1_555 1_555
H35_2 C38_2 1_555 1_555
C39_2 N6_2 1_555 1_555
H36_2 C39_2 1_555 1_555
H37_2 C39_2 1_555 1_555
H38_2 C39_2 1_555 1_555
C40_2 O20_2 1_555 1_555
O31 Ca9 1_555 1_555
O32 Ca12 1_555 1_555
O13_2 Ca9 1_555 1_555
N6_2 C40_2 1_555 1_555
C37_2 C40_2 1_555 1_555
Ca6 O2_2 1_555 1_555
Ca10 O2_2 1_555 1_555
O2_2 C15_2 1_555 1_555
O3_2 Ca10 1_555 1_555
O6_2 Ca6 1_555 1_555
O8_2 Ca6 1_555 1_555
O9_2 Ca10 1_555 1_555
O10_2 Ca10 1_555 1_555
H1_2 O10_2 1_555 1_555
H2_2 O10_2 1_555 1_555
C6_2 C11_2 1_555 1_555
N3_2 C18_2 1_555 1_555
H7_2 C11_2 1_555 1_555
C13_2 O8_2 1_555 1_555
C15_2 O6_2 1_555 1_555
C16_2 H10_2 1_555 1_555
H11_2 C16_2 1_555 1_555
H12_2 C16_2 1_555 1_555
C17_2 C3_2 1_555 1_555
H13_2 C17_2 1_555 1_555
C18_2 H14_2 1_555 1_555
H15_2 C18_2 1_555 1_555
H16_2 C18_2 1_555 1_555
C19_2 N3_2 1_555 1_555
H17_2 C19_2 1_555 1_555
H18_2 C19_2 1_555 1_555
H19_2 C19_2 1_555 1_555
C20_2 O3_2 1_555 1_555
C21_2 C24_2 1_555 1_555
C22_2 N4_2 1_555 1_555
C24_2 C22_2 1_555 1_555
H20_2 C24_2 1_555 1_555
O24 C28_2 1_555 1_555
O26 C28_2 1_555 1_555
C28_2 C21_2 1_555 1_555
O9_2 C13_2 1_555 1_555
C3_2 C13_2 1_555 1_555
C6_2 C15_2 1_555 1_555
N3_2 C20_2 1_555 1_555
C16_2 C20_2 1_555 1_555
C29_2 C32_2 1_555 1_555
C31_2 N5_2 1_555 1_555
C32_2 H23_2 1_555 1_555
C34_2 C29_2 1_555 1_555
H24_2 C34_2 1_555 1_555
O28 C36_2 1_555 1_555
O30 C36_2 1_555 1_555
C36_2 C29_2 1_555 1_555
C31_2 C34_2 1_555 1_555
O27 C10_2 1_555 1_555
O29 C10_2 1_555 1_555
N1_2 C4_2 1_555 1_555
C2_2 C9_2 1_555 1_555
C4_2 C14_2 1_555 1_555
H3_2 O11_2 1_555 1_555
H4_2 O11_2 1_555 1_555
C9_2 H6_2 1_555 1_555
C10_2 C2_2 1_555 1_555
H8_2 C12_2 1_555 1_555
C14_2 C2_2 1_555 1_555
H9_2 C14_2 1_555 1_555
O31 C33_2 1_555 1_555
O32 C33_2 1_555 1_555
C33_2 C30_2 1_555 1_555
C35_2 C30_2 1_555 1_555
H25_2 C35_2 1_555 1_555

#END
