
###############################################################################
#
# This file contains modified crystal structure data generated from the
# MOF subset of the Cambridge Structural Database (CSD) v543 
# hosted by the Cambridge Crystallographic Data Centre (CCDC).
#
# This work is licensed under the Creative Commons
# Attribution-NonCommercial-ShareAlike 4.0 International License.
# To view a copy of this license, visit
# http://creativecommons.org/licenses/by-nc-sa/4.0/
# or send a letter to
# Creative Commons, PO Box 1866, Mountain View, CA 94042, USA.
#
# CIF created using the CSD Python API on 29 September 2022
# The structure has been converted into the P1 space group
# The structure has a 3D framework
# The original CSD entry ZIDVAL is in the monoclinic crystal system
# The framework has been calculated to contain at least 10.0% void space
# The void calculation uses a probe of radius 1.32A, grid spacing 0.4
# The framework is charged, counterions have been retained in the structure
# H atom positions have been added when not included in the experimental data
#
###############################################################################

data_ZIDVAL
_chemical_formula_moiety         '(C128 H100 Mn12 N20 O36 S4 6+)n'
_symmetry_cell_setting           triclinic
_symmetry_space_group_name_H-M   'P 1'
_symmetry_Int_Tables_number      1
_space_group_name_Hall           'P 1'
loop_
_symmetry_equiv_pos_site_id
_symmetry_equiv_pos_as_xyz
1 x,y,z
_cell_length_a                   14.169(2)
_cell_length_b                   21.586(4)
_cell_length_c                   12.781(2)
_cell_angle_alpha                90
_cell_angle_beta                 114.173(2)
_cell_angle_gamma                90
_cell_volume                     3566.32
loop_
_atom_site_label
_atom_site_type_symbol
_atom_site_fract_x
_atom_site_fract_y
_atom_site_fract_z
Mn9 Mn 0.0000 0.5000 0.0000
C1 C 0.1732(2) 0.58320(13) 0.4860(2)
H1 H 0.1141 0.5627 0.4820
C2 C 0.2983(3) 0.65045(17) 0.5333(3)
H2 H 0.3421 0.6838 0.5660
C3 C 0.3076(3) 0.60817(17) 0.4601(3)
H3 H 0.3596 0.6078 0.4335
C4 C 0.1672(2) 0.66685(13) 0.6164(2)
C5 C 0.1049(2) 0.63419(13) 0.6571(2)
H4 H 0.0967 0.5916 0.6456
C6 C 0.0552(2) 0.66490(13) 0.7149(2)
H5 H 0.0112 0.6429 0.7388
C7 C 0.0694(2) 0.72804(13) 0.7381(2)
C8 C 0.1366(3) 0.75937(14) 0.7007(3)
H6 H 0.1496 0.8012 0.7176
C9 C 0.1840(2) 0.72952(14) 0.6391(3)
H7 H 0.2268 0.7514 0.6133
C10 C 0.0138(2) 0.75926(13) 0.8001(2)
H11 H 0.0147 0.8460 0.7417
C19 C 0.2122(2) 0.57269(13) 0.1082(2)
C20 C 0.28513(19) 0.61472(12) 0.0823(2)
C21 C 0.3765(2) 0.63451(14) 0.1699(2)
H15 H 0.3930 0.6216 0.2448
C22 C 0.4436(2) 0.67334(14) 0.1466(2)
H16 H 0.5046 0.6868 0.2054
C23 C 0.4183(2) 0.69161(12) 0.0349(2)
C27 C 0.6787(2) 0.67573(15) 0.0694(2)
H19 H 0.6890 0.6843 0.1447
C28 C 0.7510(2) 0.64149(15) 0.0461(2)
H20 H 0.8095 0.6264 0.1064
Mn1 Mn 0.20022(3) 0.486868(19) 0.30518(3)
N1 N 0.2283(2) 0.56578(11) 0.4309(2)
N2 N 0.21191(18) 0.63469(11) 0.5499(2)
O1 O 0.24551(18) 0.54988(13) 0.20529(19)
O2 O 0.12462(16) 0.56447(11) 0.02890(18)
O3 O 0.55583(19) 0.77817(11) 0.1078(2)
O7 O 0.03623(15) 0.49770(9) 0.19045(17)
O9 O 0.37403(17) 0.46842(13) 0.3932(2)
H23 H 0.4067 0.5003 0.3874
H24 H 0.3904 0.4604 0.4636
S1 S 0.50060(5) 0.74384(3) 0.00489(6)
Mn9_2 Mn 1.0000 0.5000 0.0000
N11 N 0.19561(18) 0.41147(11) 0.4274(2)
O20 O 0.10681(17) 0.42603(11) 0.00838(18)
O22 O 0.20125(19) 0.41231(11) 0.19419(18)
C11 C 0.9802(3) 0.72568(14) 0.8716(3)
H8 H 0.9954 0.6836 0.8828
C12 C 0.9251(3) 0.75324(14) 0.9260(3)
H9 H 0.9037 0.7300 0.9737
C13 C 0.9015(2) 0.81607(13) 0.9094(2)
C14 C 0.9356(2) 0.85063(13) 0.8410(2)
H10 H 0.9210 0.8928 0.8309
C15 C 0.9915(2) 0.82235(13) 0.7873(2)
C16 C 0.7754(3) 0.81623(16) 0.9994(3)
H12 H 0.7496 0.7762 0.9803
N3 N 0.84570(18) 0.84488(11) 0.9672(2)
N5 N 0.9662(2) 0.50096(12) 0.2266(3)
O8 O 0.97795(19) 0.50255(9) 0.32735(19)
C56 C 0.6718(2) 0.32782(16) 0.0533(3)
H41 H 0.6877 0.3154 0.1283
C57 C 0.7384(2) 0.36644(15) 0.0280(2)
H42 H 0.7997 0.3796 0.0868
C58 C 0.4088(2) 0.30315(12) 0.0214(2)
C61 C 0.2631(2) 0.37036(12) 0.0657(2)
C62 C 0.3507(2) 0.34826(15) 0.1552(2)
H45 H 0.3605 0.3559 0.2306
C63 C 0.4244(2) 0.31471(14) 0.1331(2)
H46 H 0.4836 0.3002 0.1933
C64 C 0.1836(2) 0.40664(12) 0.0913(2)
O13 O 0.55977(18) 0.22429(10) 0.0995(2)
C11_2 C 0.0198(3) 0.22568(14) 0.6284(3)
H8_2 H 0.0046 0.1836 0.6172
C12_2 C 0.0749(3) 0.25324(14) 0.5740(3)
H9_2 H 0.0963 0.2300 0.5263
C13_2 C 0.0985(2) 0.31607(13) 0.5906(2)
C14_2 C 0.0644(2) 0.35063(13) 0.6590(2)
H10_2 H 0.0790 0.3928 0.6691
C15_2 C 0.0085(2) 0.32235(13) 0.7127(2)
C16_2 C 0.2246(3) 0.31623(16) 0.5006(3)
H12_2 H 0.2504 0.2762 0.5197
C17 C 0.2493(3) 0.35708(16) 0.4361(3)
H13 H 0.2954 0.3497 0.4025
C18 C 0.1400(2) 0.40218(12) 0.4859(2)
H14 H 0.0956 0.4316 0.4944
N3_2 N 0.15430(18) 0.34488(11) 0.5328(2)
H49 H 0.926419 0.540142 0.19097
Mn9_3 Mn -0.0000 0.5000 1.0000
C24 C 0.3282(2) 0.67218(16) 0.9467(3)
H17 H 0.3123 0.6846 0.8717
C25 C 0.2616(2) 0.63356(15) 0.9720(2)
H18 H 0.2003 0.6204 0.9132
C26 C 0.5912(2) 0.69685(12) 0.9786(2)
C29 C 0.7369(2) 0.62964(12) 0.9343(2)
C30 C 0.6493(2) 0.65174(15) 0.8448(2)
H21 H 0.6395 0.6441 0.7694
C31 C 0.5756(2) 0.68529(14) 0.8669(2)
H22 H 0.5164 0.6998 0.8067
C32 C 0.8164(2) 0.59336(12) 0.9087(2)
O4 O 0.44023(18) 0.77571(10) 0.9005(2)
O5 O 0.89319(17) 0.57397(11) 0.99162(18)
O6 O 0.79875(19) 0.58769(11) 0.80581(18)
C43 C 0.0198(3) 0.27432(14) 0.1284(3)
H32 H 0.0046 0.3164 0.1172
C44 C 0.0749(3) 0.24676(14) 0.0740(3)
H33 H 0.0963 0.2700 0.0263
C45 C 0.0985(2) 0.18393(13) 0.0906(2)
C46 C 0.0644(2) 0.14937(13) 0.1590(2)
H34 H 0.0790 0.1072 0.1691
C47 C 0.0085(2) 0.17765(13) 0.2127(2)
C48 C 0.2246(3) 0.18377(16) 0.0006(3)
H36 H 0.2504 0.2238 0.0197
N8 N 0.15430(18) 0.15512(11) 0.0328(2)
N10 N 0.0338(2) 0.49904(12) 0.7734(3)
O17 O 0.02205(19) 0.49745(9) 0.67265(19)
Mn6 Mn 0.79978(3) 0.513132(19) 0.69482(3)
Mn9_4 Mn 1.0000 0.5000 1.0000
H49_2 H 0.0735813 0.459858 0.80903
C33 C 0.8268(2) 0.41680(13) 0.5140(2)
H25 H 0.8859 0.4373 0.5180
C34 C 0.7017(3) 0.34955(17) 0.4667(3)
H26 H 0.6579 0.3162 0.4340
C35 C 0.6924(3) 0.39183(17) 0.5399(3)
H27 H 0.6404 0.3922 0.5665
C36 C 0.8328(2) 0.33315(13) 0.3836(2)
C37 C 0.8951(2) 0.36581(13) 0.3429(2)
H28 H 0.9033 0.4084 0.3544
C38 C 0.9448(2) 0.33510(13) 0.2851(2)
H29 H 0.9888 0.3571 0.2612
C39 C 0.9306(2) 0.27196(13) 0.2619(2)
C40 C 0.8634(3) 0.24063(14) 0.2993(3)
H30 H 0.8504 0.1988 0.2824
C41 C 0.8160(2) 0.27048(14) 0.3609(3)
H31 H 0.7732 0.2486 0.3867
C42 C 0.9862(2) 0.24074(13) 0.1999(2)
H35 H 0.9853 0.1540 0.2583
C51 C 0.7878(2) 0.42731(13) 0.8918(2)
C52 C 0.71487(19) 0.38528(12) 0.9177(2)
C53 C 0.6235(2) 0.36549(14) 0.8301(2)
H39 H 0.6070 0.3784 0.7552
C54 C 0.5564(2) 0.32666(14) 0.8534(2)
H40 H 0.4954 0.3132 0.7946
C55 C 0.5817(2) 0.30839(12) 0.9651(2)
C59 C 0.3213(2) 0.32427(15) 0.9306(2)
H43 H 0.3110 0.3157 0.8553
C60 C 0.2490(2) 0.35851(15) 0.9539(2)
H44 H 0.1905 0.3736 0.8936
N6 N 0.7717(2) 0.43422(11) 0.5691(2)
N7 N 0.78809(18) 0.36531(11) 0.4501(2)
O10 O 0.75449(18) 0.45012(13) 0.79471(19)
O11 O 0.87538(16) 0.43553(11) 0.97110(18)
O12 O 0.44417(19) 0.22183(11) 0.8922(2)
O16 O 0.96377(15) 0.50230(9) 0.80955(17)
O18 O 0.62597(17) 0.53158(13) 0.6068(2)
H47 H 0.5933 0.4997 0.6126
H48 H 0.6096 0.5396 0.5364
S2 S 0.49940(5) 0.25616(3) 0.99511(6)
N12 N 0.80439(18) 0.58853(11) 0.5726(2)
C43_2 C 0.9802(3) 0.77432(14) 0.3716(3)
H32_2 H 0.9954 0.8164 0.3828
C44_2 C 0.9251(3) 0.74676(14) 0.4260(3)
H33_2 H 0.9037 0.7700 0.4737
C45_2 C 0.9015(2) 0.68393(13) 0.4094(2)
C46_2 C 0.9356(2) 0.64937(13) 0.3410(2)
H34_2 H 0.9210 0.6072 0.3309
C47_2 C 0.9915(2) 0.67765(13) 0.2873(2)
C48_2 C 0.7754(3) 0.68377(16) 0.4994(3)
H36_2 H 0.7496 0.7238 0.4803
C49 C 0.7507(3) 0.64292(16) 0.5639(3)
H37 H 0.7046 0.6503 0.5975
C50 C 0.8600(2) 0.59782(12) 0.5141(2)
H38 H 0.9044 0.5684 0.5056
N8_2 N 0.84570(18) 0.65512(11) 0.4672(2)
C49_2 C 0.2493(3) 0.14292(16) 0.9361(3)
H37_2 H 0.2954 0.1503 0.9025
C50_2 C 0.1400(2) 0.09782(12) 0.9859(2)
H38_2 H 0.0956 0.0684 0.9944
N9 N 0.19561(18) 0.08853(11) 0.9274(2)
Mn7 Mn 0.20022(3) 0.013132(19) 0.80518(3)
Mn8 Mn -0.0000 0.0000 0.5000
N5_2 N 0.0338(2) 0.00096(12) 0.2734(3)
O8_2 O 0.02205(19) 0.00255(9) 0.17265(19)
O16_2 O 0.03623(15) 0.00230(9) 0.69045(17)
O18_2 O 0.37403(17) 0.03158(13) 0.8932(2)
H48_2 H 0.3904 0.0396 0.9636
Mn8_2 Mn 1.0000 0.0000 0.5000
O19 O 0.10681(17) 0.07397(11) 0.50838(18)
O21 O 0.20125(19) 0.08769(11) 0.69419(18)
C1_2 C 0.8268(2) 0.08320(13) 0.0140(2)
H1_2 H 0.8859 0.0627 0.0180
C3_2 C 0.6924(3) 0.10817(17) 0.0399(3)
H3_2 H 0.6404 0.1078 0.0665
C19_2 C 0.7878(2) 0.07269(13) 0.3918(2)
C20_2 C 0.71487(19) 0.11472(12) 0.4177(2)
C21_2 C 0.6235(2) 0.13451(14) 0.3301(2)
H15_2 H 0.6070 0.1216 0.2552
C22_2 C 0.5564(2) 0.17334(14) 0.3534(2)
H16_2 H 0.4954 0.1868 0.2946
C23_2 C 0.5817(2) 0.19161(12) 0.4651(2)
C24_2 C 0.6718(2) 0.17218(16) 0.5533(3)
H17_2 H 0.6877 0.1846 0.6283
C25_2 C 0.7384(2) 0.13356(15) 0.5280(2)
H18_2 H 0.7997 0.1204 0.5868
C26_2 C 0.4088(2) 0.19685(12) 0.5214(2)
C27_2 C 0.3213(2) 0.17573(15) 0.4306(2)
H19_2 H 0.3110 0.1843 0.3553
C28_2 C 0.2490(2) 0.14149(15) 0.4539(2)
H20_2 H 0.1905 0.1264 0.3936
C29_2 C 0.2631(2) 0.12964(12) 0.5657(2)
C30_2 C 0.3507(2) 0.15174(15) 0.6552(2)
H21_2 H 0.3605 0.1441 0.7306
C31_2 C 0.4244(2) 0.18529(14) 0.6331(2)
H22_2 H 0.4836 0.1998 0.6933
C32_2 C 0.1836(2) 0.09336(12) 0.5913(2)
N1_2 N 0.7717(2) 0.06578(11) 0.0691(2)
O1_2 O 0.75449(18) 0.04988(13) 0.29471(19)
O2_2 O 0.87538(16) 0.06447(11) 0.47110(18)
O3_2 O 0.44417(19) 0.27817(11) 0.3922(2)
O4_2 O 0.55977(18) 0.27571(10) 0.5995(2)
H23_2 H 0.5933 0.0003 0.1126
S1_2 S 0.49940(5) 0.24384(3) 0.49511(6)
H49_3 H 0.0735813 0.0401422 0.30903
C17_2 C 0.7507(3) 0.85708(16) 0.0639(3)
H13_2 H 0.7046 0.8497 0.0975
C18_2 C 0.8600(2) 0.90218(12) 0.0141(2)
H14_2 H 0.9044 0.9316 0.0056
N4 N 0.80439(18) 0.91147(11) 0.0726(2)
Mn5 Mn 0.79978(3) 0.986868(19) 0.19482(3)
Mn8_3 Mn 0.0000 1.0000 0.5000
C33_2 C 0.1732(2) 0.91680(13) 0.9860(2)
H25_2 H 0.1141 0.9373 0.9820
C35_2 C 0.3076(3) 0.89183(17) 0.9601(3)
H27_2 H 0.3596 0.8922 0.9335
C51_2 C 0.2122(2) 0.92731(13) 0.6082(2)
C52_2 C 0.28513(19) 0.88528(12) 0.5823(2)
C53_2 C 0.3765(2) 0.86549(14) 0.6699(2)
H39_2 H 0.3930 0.8784 0.7448
C54_2 C 0.4436(2) 0.82666(14) 0.6466(2)
H40_2 H 0.5046 0.8132 0.7054
C55_2 C 0.4183(2) 0.80839(12) 0.5349(2)
C56_2 C 0.3282(2) 0.82782(16) 0.4467(3)
H41_2 H 0.3123 0.8154 0.3717
C57_2 C 0.2616(2) 0.86644(15) 0.4720(2)
H42_2 H 0.2003 0.8796 0.4132
C58_2 C 0.5912(2) 0.80315(12) 0.4786(2)
C59_2 C 0.6787(2) 0.82427(15) 0.5694(2)
H43_2 H 0.6890 0.8157 0.6447
C60_2 C 0.7510(2) 0.85851(15) 0.5461(2)
H44_2 H 0.8095 0.8736 0.6064
C61_2 C 0.7369(2) 0.87036(12) 0.4343(2)
C62_2 C 0.6493(2) 0.84826(15) 0.3448(2)
H45_2 H 0.6395 0.8559 0.2694
C63_2 C 0.5756(2) 0.81471(14) 0.3669(2)
H46_2 H 0.5164 0.8002 0.3067
C64_2 C 0.8164(2) 0.90664(12) 0.4087(2)
N6_2 N 0.2283(2) 0.93422(11) 0.9309(2)
O10_2 O 0.24551(18) 0.95012(13) 0.70529(19)
O11_2 O 0.12462(16) 0.93553(11) 0.52890(18)
O12_2 O 0.55583(19) 0.72183(11) 0.6078(2)
O13_2 O 0.44023(18) 0.72429(10) 0.4005(2)
O14 O 0.89319(17) 0.92603(11) 0.49162(18)
O15 O 0.79875(19) 0.91231(11) 0.30581(18)
H47_2 H 0.4067 0.9997 0.8874
S2_2 S 0.50060(5) 0.75616(3) 0.50489(6)
Mn8_4 Mn 1.0000 1.0000 0.5000
O7_2 O 0.96377(15) 0.99770(9) 0.30955(17)
O9_2 O 0.62597(17) 0.96842(13) 0.1068(2)
H24_2 H 0.6096 0.9604 0.0364
N10_2 N 0.9662(2) 0.99904(12) 0.7266(3)
O17_2 O 0.97795(19) 0.99745(9) 0.82735(19)
H49_4 H 0.926419 0.959858 0.69097
C34_2 C 0.2983(3) 0.84955(17) 0.0333(3)
H26_2 H 0.3421 0.8162 0.0660
C36_2 C 0.1672(2) 0.83315(13) 0.1164(2)
C37_2 C 0.1049(2) 0.86581(13) 0.1571(2)
H28_2 H 0.0967 0.9084 0.1456
C38_2 C 0.0552(2) 0.83510(13) 0.2149(2)
H29_2 H 0.0112 0.8571 0.2388
C39_2 C 0.0694(2) 0.77196(13) 0.2381(2)
C40_2 C 0.1366(3) 0.74063(14) 0.2007(3)
H30_2 H 0.1496 0.6988 0.2176
C41_2 C 0.1840(2) 0.77048(14) 0.1391(3)
H31_2 H 0.2268 0.7486 0.1133
C42_2 C 0.0138(2) 0.74074(13) 0.3001(2)
H35_2 H 0.0147 0.6540 0.2417
N7_2 N 0.21191(18) 0.86531(11) 0.0499(2)
C2_2 C 0.7017(3) 0.15045(17) 0.9667(3)
H2_2 H 0.6579 0.1838 0.9340
C4_2 C 0.8328(2) 0.16685(13) 0.8836(2)
C5_2 C 0.8951(2) 0.13419(13) 0.8429(2)
H4_2 H 0.9033 0.0916 0.8544
C6_2 C 0.9448(2) 0.16490(13) 0.7851(2)
H5_2 H 0.9888 0.1429 0.7612
C7_2 C 0.9306(2) 0.22804(13) 0.7619(2)
C8_2 C 0.8634(3) 0.25937(14) 0.7993(3)
H6_2 H 0.8504 0.3012 0.7824
C9_2 C 0.8160(2) 0.22952(14) 0.8609(3)
H7_2 H 0.7732 0.2514 0.8867
C10_2 C 0.9862(2) 0.25926(13) 0.6999(2)
H11_2 H 0.9853 0.3460 0.7583
N2_2 N 0.78809(18) 0.13469(11) 0.9501(2)
loop_
_geom_bond_atom_site_label_1
_geom_bond_atom_site_label_2
_geom_bond_site_symmetry_1
_geom_bond_site_symmetry_2
C1 H1 1_555 1_555
C2 H2 1_555 1_555
C3 C2 1_555 1_555
H3 C3 1_555 1_555
C4 C5 1_555 1_555
C5 H4 1_555 1_555
C6 C5 1_555 1_555
H5 C6 1_555 1_555
C7 C6 1_555 1_555
C8 C7 1_555 1_555
H6 C8 1_555 1_555
C9 C4 1_555 1_555
H7 C9 1_555 1_555
C10 C7 1_555 1_555
C19 C20 1_555 1_555
C20 C21 1_555 1_555
C21 H15 1_555 1_555
C22 C21 1_555 1_555
H16 C22 1_555 1_555
C23 C22 1_555 1_555
C27 H19 1_555 1_555
C28 C27 1_555 1_555
H20 C28 1_555 1_555
Mn1 N1 1_555 1_555
Mn9 O2 1_555 1_555
N1 C1 1_555 1_555
N2 C1 1_555 1_555
O1 C19 1_555 1_555
O2 C19 1_555 1_555
O3 S1 1_555 1_555
O7 Mn1 1_555 1_555
O9 Mn1 1_555 1_555
H23 O9 1_555 1_555
H24 O9 1_555 1_555
S1 C23 1_555 1_555
N11 Mn1 1_555 1_555
O20 Mn9 1_555 1_555
O22 Mn1 1_555 1_555
C2 N2 1_555 1_555
C3 N1 1_555 1_555
C4 N2 1_555 1_555
C8 C9 1_555 1_555
Mn1 O1 1_555 1_555
Mn9 O7 1_555 1_555
H8 C11 1_555 1_555
C12 C11 1_555 1_555
H9 C12 1_555 1_555
C13 C12 1_555 1_555
C14 C13 1_555 1_555
H10 C14 1_555 1_555
C16 H12 1_555 1_555
N3 C13 1_555 1_555
O8 N5 1_555 1_555
H41 C56 1_555 1_555
H42 C57 1_555 1_555
C62 C61 1_555 1_555
H45 C62 1_555 1_555
C63 C58 1_555 1_555
H46 C63 1_555 1_555
C64 C61 1_555 1_555
O20 C64 1_555 1_555
O22 C64 1_555 1_555
C14 C15 1_555 1_555
C16 N3 1_555 1_555
C56 C57 1_555 1_555
C62 C63 1_555 1_555
H8_2 C11_2 1_555 1_555
C12_2 C11_2 1_555 1_555
H9_2 C12_2 1_555 1_555
C13_2 C12_2 1_555 1_555
C14_2 C13_2 1_555 1_555
H10_2 C14_2 1_555 1_555
C16_2 H12_2 1_555 1_555
C17 C16_2 1_555 1_555
H13 C17 1_555 1_555
C18 H14 1_555 1_555
N3_2 C13_2 1_555 1_555
N11 C17 1_555 1_555
C14_2 C15_2 1_555 1_555
C16_2 N3_2 1_555 1_555
C18 N3_2 1_555 1_555
C18 N11 1_555 1_555
N5 H49 1_555 1_555
H17 C24 1_555 1_555
H18 C25 1_555 1_555
C30 C29 1_555 1_555
H21 C30 1_555 1_555
C31 C26 1_555 1_555
H22 C31 1_555 1_555
C32 C29 1_555 1_555
O5 C32 1_555 1_555
O6 C32 1_555 1_555
H32 C43 1_555 1_555
C44 C43 1_555 1_555
H33 C44 1_555 1_555
C45 C44 1_555 1_555
C46 C45 1_555 1_555
H34 C46 1_555 1_555
C48 H36 1_555 1_555
N8 C45 1_555 1_555
O17 N10 1_555 1_555
Mn6 O6 1_555 1_555
Mn9_4 O5 1_555 1_555
C24 C25 1_555 1_555
C30 C31 1_555 1_555
C46 C47 1_555 1_555
C48 N8 1_555 1_555
N10 H49_2 1_555 1_555
C33 H25 1_555 1_555
C34 H26 1_555 1_555
C35 C34 1_555 1_555
H27 C35 1_555 1_555
C36 C37 1_555 1_555
C37 H28 1_555 1_555
C38 C37 1_555 1_555
H29 C38 1_555 1_555
C39 C38 1_555 1_555
C40 C39 1_555 1_555
H30 C40 1_555 1_555
C41 C36 1_555 1_555
H31 C41 1_555 1_555
C42 C39 1_555 1_555
C51 C52 1_555 1_555
C52 C53 1_555 1_555
C53 H39 1_555 1_555
C54 C53 1_555 1_555
H40 C54 1_555 1_555
C55 C54 1_555 1_555
C59 H43 1_555 1_555
C60 C59 1_555 1_555
H44 C60 1_555 1_555
Mn6 N6 1_555 1_555
N6 C33 1_555 1_555
N7 C33 1_555 1_555
O10 C51 1_555 1_555
O11 Mn9_4 1_555 1_555
O12 S2 1_555 1_555
O16 Mn9_4 1_555 1_555
O18 Mn6 1_555 1_555
H47 O18 1_555 1_555
H48 O18 1_555 1_555
S2 C55 1_555 1_555
N12 Mn6 1_555 1_555
C34 N7 1_555 1_555
C35 N6 1_555 1_555
C36 N7 1_555 1_555
C40 C41 1_555 1_555
C51 O11 1_555 1_555
Mn6 O10 1_555 1_555
Mn6 O16 1_555 1_555
H32_2 C43_2 1_555 1_555
C44_2 C43_2 1_555 1_555
H33_2 C44_2 1_555 1_555
C45_2 C44_2 1_555 1_555
C46_2 C45_2 1_555 1_555
H34_2 C46_2 1_555 1_555
C48_2 H36_2 1_555 1_555
C49 C48_2 1_555 1_555
H37 C49 1_555 1_555
C50 H38 1_555 1_555
N8_2 C45_2 1_555 1_555
N12 C49 1_555 1_555
C46_2 C47_2 1_555 1_555
C48_2 N8_2 1_555 1_555
C50 N8_2 1_555 1_555
C50 N12 1_555 1_555
H37_2 C49_2 1_555 1_555
C50_2 H38_2 1_555 1_555
N9 C49_2 1_555 1_555
Mn7 N9 1_555 1_555
C50_2 N9 1_555 1_555
O8_2 N5_2 1_555 1_555
O16_2 Mn8 1_555 1_555
O18_2 Mn7 1_555 1_555
H48_2 O18_2 1_555 1_555
O19 Mn8 1_555 1_555
O21 Mn7 1_555 1_555
Mn7 O16_2 1_555 1_555
C1_2 H1_2 1_555 1_555
H3_2 C3_2 1_555 1_555
C19_2 C20_2 1_555 1_555
C20_2 C21_2 1_555 1_555
C21_2 H15_2 1_555 1_555
C22_2 C21_2 1_555 1_555
H16_2 C22_2 1_555 1_555
C23_2 C22_2 1_555 1_555
C24_2 C23_2 1_555 1_555
H17_2 C24_2 1_555 1_555
C25_2 C20_2 1_555 1_555
H18_2 C25_2 1_555 1_555
C26_2 C27_2 1_555 1_555
C27_2 H19_2 1_555 1_555
C28_2 C27_2 1_555 1_555
H20_2 C28_2 1_555 1_555
C29_2 C28_2 1_555 1_555
C30_2 C29_2 1_555 1_555
H21_2 C30_2 1_555 1_555
C31_2 C26_2 1_555 1_555
H22_2 C31_2 1_555 1_555
C32_2 C29_2 1_555 1_555
Mn8_2 O2_2 1_555 1_555
N1_2 C1_2 1_555 1_555
O1_2 C19_2 1_555 1_555
O2_2 C19_2 1_555 1_555
O3_2 S1_2 1_555 1_555
O4_2 S1_2 1_555 1_555
O19 C32_2 1_555 1_555
O21 C32_2 1_555 1_555
S1_2 C23_2 1_555 1_555
C3_2 N1_2 1_555 1_555
C24_2 C25_2 1_555 1_555
C26_2 S1_2 1_555 1_555
C30_2 C31_2 1_555 1_555
N5_2 H49_3 1_555 1_555
H13_2 C17_2 1_555 1_555
C18_2 H14_2 1_555 1_555
N4 C17_2 1_555 1_555
Mn5 N4 1_555 1_555
C18_2 N4 1_555 1_555
C33_2 H25_2 1_555 1_555
H27_2 C35_2 1_555 1_555
C51_2 C52_2 1_555 1_555
C52_2 C53_2 1_555 1_555
C53_2 H39_2 1_555 1_555
C54_2 C53_2 1_555 1_555
H40_2 C54_2 1_555 1_555
C55_2 C54_2 1_555 1_555
C56_2 C55_2 1_555 1_555
H41_2 C56_2 1_555 1_555
C57_2 C52_2 1_555 1_555
H42_2 C57_2 1_555 1_555
C58_2 C59_2 1_555 1_555
C59_2 H43_2 1_555 1_555
C60_2 C59_2 1_555 1_555
H44_2 C60_2 1_555 1_555
C61_2 C60_2 1_555 1_555
C62_2 C61_2 1_555 1_555
H45_2 C62_2 1_555 1_555
C63_2 C58_2 1_555 1_555
H46_2 C63_2 1_555 1_555
C64_2 C61_2 1_555 1_555
N6_2 C33_2 1_555 1_555
O10_2 C51_2 1_555 1_555
O11_2 Mn8_3 1_555 1_555
O12_2 S2_2 1_555 1_555
O13_2 S2_2 1_555 1_555
O14 C64_2 1_555 1_555
O15 C64_2 1_555 1_555
S2_2 C55_2 1_555 1_555
Mn5 O15 1_555 1_555
Mn8_4 O14 1_555 1_555
C35_2 N6_2 1_555 1_555
C51_2 O11_2 1_555 1_555
C56_2 C57_2 1_555 1_555
C58_2 S2_2 1_555 1_555
C62_2 C63_2 1_555 1_555
O7_2 Mn5 1_555 1_555
O9_2 Mn5 1_555 1_555
H24_2 O9_2 1_555 1_555
O17_2 N10_2 1_555 1_555
Mn8_4 O7_2 1_555 1_555
N10_2 H49_4 1_555 1_555
C34_2 H26_2 1_555 1_555
C36_2 C37_2 1_555 1_555
C37_2 H28_2 1_555 1_555
C38_2 C37_2 1_555 1_555
H29_2 C38_2 1_555 1_555
C39_2 C38_2 1_555 1_555
C40_2 C39_2 1_555 1_555
H30_2 C40_2 1_555 1_555
C41_2 C36_2 1_555 1_555
H31_2 C41_2 1_555 1_555
C42_2 C39_2 1_555 1_555
C34_2 N7_2 1_555 1_555
C36_2 N7_2 1_555 1_555
C40_2 C41_2 1_555 1_555
C2_2 H2_2 1_555 1_555
C4_2 C5_2 1_555 1_555
C5_2 H4_2 1_555 1_555
C6_2 C5_2 1_555 1_555
H5_2 C6_2 1_555 1_555
C7_2 C6_2 1_555 1_555
C8_2 C7_2 1_555 1_555
H6_2 C8_2 1_555 1_555
C9_2 C4_2 1_555 1_555
H7_2 C9_2 1_555 1_555
C10_2 C7_2 1_555 1_555
C2_2 N2_2 1_555 1_555
C4_2 N2_2 1_555 1_555
C8_2 C9_2 1_555 1_555

#END
