
###############################################################################
#
# This file contains modified crystal structure data generated from the
# MOF subset of the Cambridge Structural Database (CSD) v543 
# hosted by the Cambridge Crystallographic Data Centre (CCDC).
#
# This work is licensed under the Creative Commons
# Attribution-NonCommercial-ShareAlike 4.0 International License.
# To view a copy of this license, visit
# http://creativecommons.org/licenses/by-nc-sa/4.0/
# or send a letter to
# Creative Commons, PO Box 1866, Mountain View, CA 94042, USA.
#
# CIF created using the CSD Python API on 29 September 2022
# The structure has been converted into the P1 space group
# The structure has a 3D framework
# The original CSD entry ZIFNUA is in the tetragonal crystal system
# The original CSD entry ZIFNUA is in a Sohncke space group
# The framework has been calculated to contain at least 10.0% void space
# The void calculation uses a probe of radius 1.32A, grid spacing 0.4
#
###############################################################################

data_ZIFNUA
_chemical_formula_moiety         '(C108 H82 Mn10 N16 O38)n'
_symmetry_cell_setting           triclinic
_symmetry_space_group_name_H-M   'P 1'
_symmetry_Int_Tables_number      1
_space_group_name_Hall           'P 1'
loop_
_symmetry_equiv_pos_site_id
_symmetry_equiv_pos_as_xyz
1 x,y,z
_cell_length_a                   15.5014(4)
_cell_length_b                   15.5014(4)
_cell_length_c                   12.4913(6)
_cell_angle_alpha                90
_cell_angle_beta                 90
_cell_angle_gamma                90
_cell_volume                     3001.58
loop_
_atom_site_label
_atom_site_type_symbol
_atom_site_fract_x
_atom_site_fract_y
_atom_site_fract_z
C12 C -0.0000 0.5000 0.0340(6)
H7 H 0.0000 0.5000 0.1085
O9 O 0.1118(3) 0.3800(3) 0.1293(3)
C16 C 0.0851(4) 0.3612(4) 0.0374(4)
Mn3 Mn 0.18287(5) 0.18287(5) 0.0000
Mn7 Mn 0.18287(5) 0.31713(5) 0.2500
Mn1 Mn 0.31713(5) 0.31713(5) 0.5000
O1 O 0.2091(2) 0.4058(3) 0.5094(4)
O2 O 0.1200(3) 0.3882(3) 0.3707(3)
O3 O 0.2500 0.2348(5) 0.3750
N1 N 0.2578(6) 0.0983(5) 0.2969(7)
H1 H 0.2696 0.1175 0.2339
C1 C 0.1388(4) 0.4149(4) 0.4626(4)
C2 C 0.0679(4) 0.4615(4) 0.5219(5)
C3 C 0.0688(4) 0.4643(4) 0.6326(5)
H2 H 0.1177 0.4422 0.6710
C4 C 0.0000 0.5000 0.6902(5)
C5 C 0.0000 0.5000 0.4660(6)
H3 H 0.0000 0.5000 0.3915
C6 C 0.2500 0.1486(10) 0.3750
C7 C 0.2464(9) 0.0079(10) 0.3158(10)
C11 C -0.0000 0.5000 0.8098(5)
O8 O 0.0942(3) 0.2909(2) 0.9906(4)
C17 C 0.0385(4) 0.4321(4) 0.9781(5)
C18 C 0.0357(4) 0.4312(4) 0.8674(5)
H9 H 0.0578 0.3823 0.8290
N2 N 0.2422(6) 0.0983(5) 0.4531(7)
H10 H 0.2304 0.1175 0.5161
C19 C 0.2536(9) 0.0079(10) 0.4342(10)
Mn3_2 Mn 0.18287(5) 0.18287(5) 1.0000
O12 O 0.4058(3) 0.2091(2) 0.4906(4)
O14 O 0.3800(3) 0.3882(3) 0.3793(3)
O15 O 0.3882(3) 0.3800(3) 0.6207(3)
O18 O 0.2348(5) 0.2500 0.6250
O5 O 0.8882(3) 0.6200(3) 0.1293(3)
C8 C 0.9149(4) 0.6388(4) 0.0374(4)
C12_2 C 1.0000 0.5000 0.0340(6)
H7_2 H 1.0000 0.5000 0.1085
Mn2 Mn 0.81713(5) 0.81713(5) 0.0000
O10 O 0.7348(5) 0.7500 0.1250
N3 N 0.5983(5) 0.7578(6) 0.2031(7)
H13 H 0.6175 0.7696 0.2661
C20 C 0.6486(10) 0.7500 0.1250
C21 C 0.5079(10) 0.7464(9) 0.1842(10)
H14 H 0.4738 0.7915 0.2176
H15 H 0.4878 0.6904 0.2082
N4 N 0.5983(5) 0.7422(6) 0.0469(7)
C22 C 0.5079(10) 0.7536(9) 0.0658(10)
H17 H 0.4738 0.7085 0.0324
H18 H 0.4878 0.8096 0.0418
Mn5 Mn 0.81713(5) 0.68287(5) 0.2500
O11 O 0.7091(2) 0.9058(3) 0.0094(4)
O13 O 0.8882(3) 0.8800(3) 0.1207(3)
C4_2 C 1.0000 0.5000 0.6902(5)
C5_2 C 1.0000 0.5000 0.4660(6)
H3_2 H 1.0000 0.5000 0.3915
O4 O 0.9058(3) 0.7091(2) 0.9906(4)
C9 C 0.9615(4) 0.5679(4) 0.9781(5)
C10 C 0.9643(4) 0.5688(4) 0.8674(5)
H6 H 0.9422 0.6177 0.8290
C11_2 C 1.0000 0.5000 0.8098(5)
O6 O 0.7909(2) 0.5942(3) 0.5094(4)
O7 O 0.8800(3) 0.6118(3) 0.3707(3)
C13 C 0.8612(4) 0.5851(4) 0.4626(4)
C14 C 0.9321(4) 0.5385(4) 0.5219(5)
C15 C 0.9312(4) 0.5357(4) 0.6326(5)
H8 H 0.8823 0.5578 0.6710
Mn2_2 Mn 0.81713(5) 0.81713(5) 1.0000
H16 H 0.6175 0.7304 0.9839
Mn8 Mn 0.68287(5) 0.68287(5) 0.5000
O16 O 0.8800(3) 0.8882(3) 0.8793(3)
O17 O 0.7500 0.7348(5) 0.8750
O4_2 O 0.2909(2) 0.4058(3) 0.2406(4)
C8_2 C 0.3612(4) 0.4149(4) 0.2874(4)
C9_2 C 0.4321(4) 0.4615(4) 0.2281(5)
C10_2 C 0.4312(4) 0.4643(4) 0.1174(5)
H6_2 H 0.3823 0.4422 0.0790
C11_3 C 0.5000 0.5000 0.0598(5)
C12_3 C 0.5000 0.5000 0.2840(6)
H7_3 H 0.5000 0.5000 0.3585
O8_2 O 0.7091(2) 0.5942(3) 0.2406(4)
O9_2 O 0.6200(3) 0.6118(3) 0.3793(3)
C16_2 C 0.6388(4) 0.5851(4) 0.2874(4)
C17_2 C 0.5679(4) 0.5385(4) 0.2281(5)
C18_2 C 0.5688(4) 0.5357(4) 0.1174(5)
H9_2 H 0.6177 0.5578 0.0790
O11_2 O 0.0942(3) 0.2091(2) 0.2594(4)
O17_2 O 0.2652(5) 0.2500 0.1250
Mn1_2 Mn 0.68287(5) 0.81713(5) 0.7500
O1_2 O 0.5942(3) 0.7091(2) 0.7594(4)
O2_2 O 0.6118(3) 0.6200(3) 0.6207(3)
O3_2 O 0.7652(5) 0.7500 0.6250
N1_2 N 0.9017(5) 0.7578(6) 0.5469(7)
H1_2 H 0.8825 0.7696 0.4839
C1_2 C 0.5851(4) 0.6388(4) 0.7126(4)
C2_2 C 0.5385(4) 0.5679(4) 0.7719(5)
C3_2 C 0.5357(4) 0.5688(4) 0.8826(5)
H2_2 H 0.5578 0.6177 0.9210
C4_3 C 0.5000 0.5000 0.9402(5)
C5_3 C 0.5000 0.5000 0.7160(6)
H3_3 H 0.5000 0.5000 0.6415
C6_2 C 0.8514(10) 0.7500 0.6250
C7_2 C 0.9921(10) 0.7464(9) 0.5658(10)
O6_2 O 0.4058(3) 0.2909(2) 0.7594(4)
C13_2 C 0.4149(4) 0.3612(4) 0.7126(4)
C14_2 C 0.4615(4) 0.4321(4) 0.7719(5)
C15_2 C 0.4643(4) 0.4312(4) 0.8826(5)
H8_2 H 0.4422 0.3823 0.9210
N2_2 N 0.9017(5) 0.7422(6) 0.7031(7)
H10_2 H 0.8825 0.7304 0.7661
C19_2 C 0.9921(10) 0.7536(9) 0.6842(10)
Mn8_2 Mn 0.31713(5) 0.18287(5) 0.7500
O12_2 O 0.7909(2) 0.9058(3) 0.7406(4)
O14_2 O 0.6118(3) 0.8800(3) 0.6293(3)
O15_2 O 0.6200(3) 0.8882(3) 0.8707(3)
O1_3 O 0.2909(2) 0.0942(3) 0.0094(4)
C2_3 C 0.4321(4) 0.0385(4) 0.0219(5)
C3_3 C 0.4312(4) 0.0357(4) 0.1326(5)
H2_3 H 0.3823 0.0578 0.1710
C4_4 C 0.5000 0.0000 0.1902(5)
C11_4 C 0.5000 0.0000 0.3098(5)
C12_4 C 0.5000 -0.0000 0.5340(6)
H7_4 H 0.5000 0.0000 0.6085
O9_3 O 0.3882(3) 0.1200(3) 0.6293(3)
C16_3 C 0.4149(4) 0.1388(4) 0.5374(4)
C17_3 C 0.4615(4) 0.0679(4) 0.4781(5)
C18_3 C 0.4643(4) 0.0688(4) 0.3674(5)
H9_3 H 0.4422 0.1177 0.3290
H10_3 H 0.2696 0.3825 0.0161
O15_3 O 0.1118(3) 0.1200(3) 0.1207(3)
O2_3 O 0.3800(3) 0.1118(3) 0.8707(3)
O3_3 O 0.2500 0.2652(5) 0.8750
N1_3 N 0.2422(6) 0.4017(5) 0.7969(7)
H1_3 H 0.2304 0.3825 0.7339
C1_3 C 0.3612(4) 0.0851(4) 0.9626(4)
C5_4 C 0.5000 0.0000 0.9660(6)
H3_4 H 0.5000 0.0000 0.8915
C6_3 C 0.2500 0.3514(10) 0.8750
C7_3 C 0.2536(9) 0.4921(10) 0.8158(10)
H4 H 0.2085 0.5262 0.7824
H5 H 0.3096 0.5122 0.7918
N2_3 N 0.2578(6) 0.4017(5) 0.9531(7)
C19_3 C 0.2464(9) 0.4921(10) 0.9342(10)
H11 H 0.2915 0.5262 0.9676
H12 H 0.1904 0.5122 0.9582
O14_3 O 0.1200(3) 0.1118(3) 0.8793(3)
C4_5 C 0.5000 1.0000 0.1902(5)
O4_3 O 0.5942(3) 0.7909(2) 0.4906(4)
C8_3 C 0.5851(4) 0.8612(4) 0.5374(4)
C9_3 C 0.5385(4) 0.9321(4) 0.4781(5)
C10_3 C 0.5357(4) 0.9312(4) 0.3674(5)
H6_3 H 0.5578 0.8823 0.3290
C11_5 C 0.5000 1.0000 0.3098(5)
C12_5 C 0.5000 1.0000 0.5340(6)
H7_5 H 0.5000 1.0000 0.6085
C14_3 C 0.5679(4) 0.9615(4) 0.0219(5)
C15_3 C 0.5688(4) 0.9643(4) 0.1326(5)
H8_3 H 0.6177 0.9422 0.1710
O17_3 O 0.7500 0.7652(5) 0.3750
C5_5 C 0.5000 1.0000 0.9660(6)
H3_5 H 0.5000 1.0000 0.8915
C13_3 C 0.6388(4) 0.9149(4) 0.9626(4)
C4_6 C -0.0000 -0.0000 0.4402(5)
C5_6 C 0.0000 0.0000 0.2160(6)
H3_6 H 0.0000 0.0000 0.1415
O4_4 O 0.2091(2) 0.0942(3) 0.7406(4)
C8_4 C 0.1388(4) 0.0851(4) 0.7874(4)
C9_4 C 0.0679(4) 0.0385(4) 0.7281(5)
C10_4 C 0.0688(4) 0.0357(4) 0.6174(5)
H6_4 H 0.1177 0.0578 0.5790
C11_6 C -0.0000 0.0000 0.5598(5)
C12_6 C 0.0000 0.0000 0.7840(6)
H7_6 H 0.0000 0.0000 0.8585
C13_4 C 0.0851(4) 0.1388(4) 0.2126(4)
C14_4 C 0.0385(4) 0.0679(4) 0.2719(5)
C15_4 C 0.0357(4) 0.0688(4) 0.3826(5)
H8_4 H 0.0578 0.1177 0.4210
O1_4 O 0.9058(3) 0.7909(2) 0.2594(4)
C1_4 C 0.9149(4) 0.8612(4) 0.2126(4)
C2_4 C 0.9615(4) 0.9321(4) 0.2719(5)
C3_4 C 0.9643(4) 0.9312(4) 0.3826(5)
H2_4 H 0.9422 0.8823 0.4210
C4_7 C 1.0000 1.0000 0.4402(5)
C5_7 C 1.0000 1.0000 0.2160(6)
H3_7 H 1.0000 1.0000 0.1415
C11_7 C 1.0000 1.0000 0.5598(5)
C12_7 C 1.0000 1.0000 0.7840(6)
H7_7 H 1.0000 1.0000 0.8585
C16_4 C 0.8612(4) 0.9149(4) 0.7874(4)
C17_4 C 0.9321(4) 0.9615(4) 0.7281(5)
C18_4 C 0.9312(4) 0.9643(4) 0.6174(5)
H9_4 H 0.8823 0.9422 0.5790
N3_2 N 0.0983(5) 0.2578(6) 0.7031(7)
H13_2 H 0.1175 0.2696 0.7661
C20_2 C 0.1486(10) 0.2500 0.6250
C21_2 C 0.0079(10) 0.2464(9) 0.6842(10)
N4_2 N 0.0983(5) 0.2422(6) 0.5469(7)
H16_2 H 0.1175 0.2304 0.4839
C22_2 C 0.0079(10) 0.2536(9) 0.5658(10)
H10_4 H 0.7304 0.6175 0.0161
N1_4 N 0.7578(6) 0.5983(5) 0.7969(7)
H1_4 H 0.7696 0.6175 0.7339
C6_4 C 0.7500 0.6486(10) 0.8750
C7_4 C 0.7464(9) 0.5079(10) 0.8158(10)
H4_2 H 0.7915 0.4738 0.7824
H5_2 H 0.6904 0.4878 0.7918
N2_4 N 0.7422(6) 0.5983(5) 0.9531(7)
C19_4 C 0.7536(9) 0.5079(10) 0.9342(10)
H11_2 H 0.7085 0.4738 0.9676
H12_2 H 0.8096 0.4878 0.9582
N1_5 N 0.4017(5) 0.2578(6) 0.0469(7)
C6_5 C 0.3514(10) 0.2500 0.1250
C7_5 C 0.4921(10) 0.2464(9) 0.0658(10)
H4_3 H 0.5262 0.2915 0.0324
H5_3 H 0.5122 0.1904 0.0418
N2_5 N 0.4017(5) 0.2422(6) 0.2031(7)
H10_5 H 0.3825 0.2304 0.2661
C19_5 C 0.4921(10) 0.2536(9) 0.1842(10)
H11_3 H 0.5262 0.2085 0.2176
H12_3 H 0.5122 0.3096 0.2082
H1_5 H 0.3825 0.2696 0.9839
N1_6 N 0.7422(6) 0.9017(5) 0.2969(7)
H1_6 H 0.7304 0.8825 0.2339
C6_6 C 0.7500 0.8514(10) 0.3750
C7_6 C 0.7536(9) 0.9921(10) 0.3158(10)
N2_6 N 0.7578(6) 0.9017(5) 0.4531(7)
H10_6 H 0.7696 0.8825 0.5161
C19_6 C 0.7464(9) 0.9921(10) 0.4342(10)
H4_4 H 0.2915 0.9738 0.2824
H5_4 H 0.1904 0.9878 0.2918
H11_4 H 0.2085 0.9738 0.4676
H12_4 H 0.3096 0.9878 0.4582
H4_5 H 0.0262 0.7915 0.5324
H5_5 H 0.0122 0.6904 0.5418
H11_5 H 0.0262 0.7085 0.7176
H12_5 H 0.0122 0.8096 0.7082
C4_8 C 0.0000 1.0000 0.4402(5)
C5_8 C 0.0000 1.0000 0.2160(6)
H3_8 H 0.0000 1.0000 0.1415
C11_8 C 0.0000 1.0000 0.5598(5)
C12_8 C 0.0000 1.0000 0.7840(6)
H7_8 H 0.0000 1.0000 0.8585
C4_9 C 1.0000 -0.0000 0.4402(5)
C5_9 C 1.0000 0.0000 0.2160(6)
H3_9 H 1.0000 0.0000 0.1415
C11_9 C 1.0000 0.0000 0.5598(5)
C12_9 C 1.0000 0.0000 0.7840(6)
H7_9 H 1.0000 0.0000 0.8585
H14_2 H 0.9738 0.2915 0.7176
H15_2 H 0.9878 0.1904 0.7082
H17_2 H 0.9738 0.2085 0.5324
H18_2 H 0.9878 0.3096 0.5418
H4_6 H 0.7085 0.0262 0.2824
H5_6 H 0.8096 0.0122 0.2918
H11_6 H 0.7915 0.0262 0.4676
H12_6 H 0.6904 0.0122 0.4582
loop_
_geom_bond_atom_site_label_1
_geom_bond_atom_site_label_2
_geom_bond_site_symmetry_1
_geom_bond_site_symmetry_2
H7 C12 1_555 1_555
O9 C16 1_555 1_555
Mn7 O9 1_555 1_555
Mn1 O1 1_555 1_555
O1 C1 1_555 1_555
O2 C1 1_555 1_555
O3 Mn1 1_555 1_555
N1 H1 1_555 1_555
C1 C2 1_555 1_555
C2 C3 1_555 1_555
C3 H2 1_555 1_555
C4 C3 1_555 1_555
C5 C2 1_555 1_555
H3 C5 1_555 1_555
C6 O3 1_555 1_555
C7 N1 1_555 1_555
C11 C4 1_555 1_555
C18 C11 1_555 1_555
H9 C18 1_555 1_555
N2 C6 1_555 1_555
H10 N2 1_555 1_555
C19 C7 1_555 1_555
Mn3_2 O8 1_555 1_555
Mn7 O2 1_555 1_555
O12 Mn1 1_555 1_555
O14 Mn1 1_555 1_555
O15 Mn1 1_555 1_555
O18 Mn1 1_555 1_555
O3 Mn7 1_555 1_555
N1 C6 1_555 1_555
C17 C18 1_555 1_555
N2 C19 1_555 1_555
O5 C8 1_555 1_555
H7_2 C12_2 1_555 1_555
O10 Mn2 1_555 1_555
N3 H13 1_555 1_555
C20 O10 1_555 1_555
C21 N3 1_555 1_555
H14 C21 1_555 1_555
H15 C21 1_555 1_555
N4 C20 1_555 1_555
C22 C21 1_555 1_555
H17 C22 1_555 1_555
H18 C22 1_555 1_555
Mn5 O5 1_555 1_555
O11 Mn2 1_555 1_555
O13 Mn2 1_555 1_555
O10 Mn5 1_555 1_555
N3 C20 1_555 1_555
N4 C22 1_555 1_555
H3_2 C5_2 1_555 1_555
C9 C10 1_555 1_555
C10 H6 1_555 1_555
C11_2 C4_2 1_555 1_555
O6 C13 1_555 1_555
O7 C13 1_555 1_555
C13 C14 1_555 1_555
C14 C5_2 1_555 1_555
C15 C4_2 1_555 1_555
H8 C15 1_555 1_555
Mn2_2 O4 1_555 1_555
Mn5 O7 1_555 1_555
Mn8 O6 1_555 1_555
O16 Mn2_2 1_555 1_555
O17 Mn2_2 1_555 1_555
C10 C11_2 1_555 1_555
C14 C15 1_555 1_555
O4_2 C8_2 1_555 1_555
O14 C8_2 1_555 1_555
C8_2 C9_2 1_555 1_555
C9_2 C10_2 1_555 1_555
C10_2 H6_2 1_555 1_555
C12_3 C9_2 1_555 1_555
H7_3 C12_3 1_555 1_555
O8_2 C16_2 1_555 1_555
O9_2 C16_2 1_555 1_555
C16_2 C17_2 1_555 1_555
C17_2 C12_3 1_555 1_555
C18_2 C11_3 1_555 1_555
H9_2 C18_2 1_555 1_555
Mn7 O4_2 1_555 1_555
Mn5 O8_2 1_555 1_555
Mn8 O9_2 1_555 1_555
O11_2 Mn7 1_555 1_555
O17_2 Mn7 1_555 1_555
C10_2 C11_3 1_555 1_555
C17_2 C18_2 1_555 1_555
Mn1_2 O1_2 1_555 1_555
O1_2 C1_2 1_555 1_555
O2_2 C1_2 1_555 1_555
O3_2 Mn1_2 1_555 1_555
N1_2 H1_2 1_555 1_555
C1_2 C2_2 1_555 1_555
C2_2 C3_2 1_555 1_555
C3_2 H2_2 1_555 1_555
C4_3 C3_2 1_555 1_555
C5_3 C2_2 1_555 1_555
H3_3 C5_3 1_555 1_555
C6_2 O3_2 1_555 1_555
C7_2 N1_2 1_555 1_555
O6_2 C13_2 1_555 1_555
O15 C13_2 1_555 1_555
C13_2 C14_2 1_555 1_555
C14_2 C5_3 1_555 1_555
C15_2 C4_3 1_555 1_555
H8_2 C15_2 1_555 1_555
N2_2 C6_2 1_555 1_555
H10_2 N2_2 1_555 1_555
C19_2 C7_2 1_555 1_555
Mn8 O2_2 1_555 1_555
Mn8_2 O6_2 1_555 1_555
O12_2 Mn1_2 1_555 1_555
O14_2 Mn1_2 1_555 1_555
O15_2 Mn1_2 1_555 1_555
O17 Mn1_2 1_555 1_555
O3_2 Mn8 1_555 1_555
N1_2 C6_2 1_555 1_555
C14_2 C15_2 1_555 1_555
N2_2 C19_2 1_555 1_555
Mn3 O1_3 1_555 1_555
C2_3 C3_3 1_555 1_555
C3_3 H2_3 1_555 1_555
C4_4 C3_3 1_555 1_555
C11_4 C4_4 1_555 1_555
H7_4 C12_4 1_555 1_555
O12 C16_3 1_555 1_555
O9_3 C16_3 1_555 1_555
C16_3 C17_3 1_555 1_555
C17_3 C12_4 1_555 1_555
C18_3 C11_4 1_555 1_555
H9_3 C18_3 1_555 1_555
Mn8_2 O9_3 1_555 1_555
O15_3 Mn3 1_555 1_555
O17_2 Mn3 1_555 1_555
C17_3 C18_3 1_555 1_555
O2_3 C1_3 1_555 1_555
O3_3 Mn3_2 1_555 1_555
N1_3 H1_3 1_555 1_555
H3_4 C5_4 1_555 1_555
C6_3 O3_3 1_555 1_555
C7_3 N1_3 1_555 1_555
H4 C7_3 1_555 1_555
H5 C7_3 1_555 1_555
N2_3 C6_3 1_555 1_555
C19_3 C7_3 1_555 1_555
H11 C19_3 1_555 1_555
H12 C19_3 1_555 1_555
Mn8_2 O2_3 1_555 1_555
O14_3 Mn3_2 1_555 1_555
O3_3 Mn8_2 1_555 1_555
N1_3 C6_3 1_555 1_555
N2_3 C19_3 1_555 1_555
O4_3 C8_3 1_555 1_555
O14_2 C8_3 1_555 1_555
C8_3 C9_3 1_555 1_555
C9_3 C10_3 1_555 1_555
C10_3 H6_3 1_555 1_555
C11_5 C4_5 1_555 1_555
C12_5 C9_3 1_555 1_555
H7_5 C12_5 1_555 1_555
C15_3 C4_5 1_555 1_555
H8_3 C15_3 1_555 1_555
Mn8 O4_3 1_555 1_555
O17_3 Mn8 1_555 1_555
C10_3 C11_5 1_555 1_555
C14_3 C15_3 1_555 1_555
H3_5 C5_5 1_555 1_555
O15_2 C13_3 1_555 1_555
H3_6 C5_6 1_555 1_555
O4_4 C8_4 1_555 1_555
O14_3 C8_4 1_555 1_555
C8_4 C9_4 1_555 1_555
C9_4 C10_4 1_555 1_555
C10_4 H6_4 1_555 1_555
C11_6 C4_6 1_555 1_555
C12_6 C9_4 1_555 1_555
H7_6 C12_6 1_555 1_555
O11_2 C13_4 1_555 1_555
O15_3 C13_4 1_555 1_555
C13_4 C14_4 1_555 1_555
C14_4 C5_6 1_555 1_555
C15_4 C4_6 1_555 1_555
H8_4 C15_4 1_555 1_555
Mn8_2 O4_4 1_555 1_555
O18 Mn8_2 1_555 1_555
C10_4 C11_6 1_555 1_555
C14_4 C15_4 1_555 1_555
Mn5 O1_4 1_555 1_555
O1_4 C1_4 1_555 1_555
O13 C1_4 1_555 1_555
C1_4 C2_4 1_555 1_555
C2_4 C3_4 1_555 1_555
C3_4 H2_4 1_555 1_555
C4_7 C3_4 1_555 1_555
C5_7 C2_4 1_555 1_555
H3_7 C5_7 1_555 1_555
C11_7 C4_7 1_555 1_555
H7_7 C12_7 1_555 1_555
O12_2 C16_4 1_555 1_555
O16 C16_4 1_555 1_555
C16_4 C17_4 1_555 1_555
C17_4 C12_7 1_555 1_555
C18_4 C11_7 1_555 1_555
H9_4 C18_4 1_555 1_555
O17_3 Mn5 1_555 1_555
C17_4 C18_4 1_555 1_555
N3_2 H13_2 1_555 1_555
C20_2 O18 1_555 1_555
C21_2 N3_2 1_555 1_555
N4_2 C20_2 1_555 1_555
H16_2 N4_2 1_555 1_555
C22_2 C21_2 1_555 1_555
N3_2 C20_2 1_555 1_555
N4_2 C22_2 1_555 1_555
N1_4 H1_4 1_555 1_555
C6_4 O17 1_555 1_555
C7_4 N1_4 1_555 1_555
H4_2 C7_4 1_555 1_555
H5_2 C7_4 1_555 1_555
N2_4 C6_4 1_555 1_555
C19_4 C7_4 1_555 1_555
H11_2 C19_4 1_555 1_555
H12_2 C19_4 1_555 1_555
N1_4 C6_4 1_555 1_555
N2_4 C19_4 1_555 1_555
C6_5 O17_2 1_555 1_555
C7_5 N1_5 1_555 1_555
H4_3 C7_5 1_555 1_555
H5_3 C7_5 1_555 1_555
N2_5 C6_5 1_555 1_555
H10_5 N2_5 1_555 1_555
C19_5 C7_5 1_555 1_555
H11_3 C19_5 1_555 1_555
H12_3 C19_5 1_555 1_555
N1_5 C6_5 1_555 1_555
N2_5 C19_5 1_555 1_555
N1_6 H1_6 1_555 1_555
C6_6 O17_3 1_555 1_555
C7_6 N1_6 1_555 1_555
N2_6 C6_6 1_555 1_555
H10_6 N2_6 1_555 1_555
C19_6 C7_6 1_555 1_555
N1_6 C6_6 1_555 1_555
N2_6 C19_6 1_555 1_555
H3_8 C5_8 1_555 1_555
C11_8 C4_8 1_555 1_555
H7_8 C12_8 1_555 1_555
H3_9 C5_9 1_555 1_555
C11_9 C4_9 1_555 1_555
H7_9 C12_9 1_555 1_555

#END
