
###############################################################################
#
# This file contains modified crystal structure data generated from the
# MOF subset of the Cambridge Structural Database (CSD) v543 
# hosted by the Cambridge Crystallographic Data Centre (CCDC).
#
# This work is licensed under the Creative Commons
# Attribution-NonCommercial-ShareAlike 4.0 International License.
# To view a copy of this license, visit
# http://creativecommons.org/licenses/by-nc-sa/4.0/
# or send a letter to
# Creative Commons, PO Box 1866, Mountain View, CA 94042, USA.
#
# CIF created using the CSD Python API on 29 September 2022
# The structure has been converted into the P1 space group
# The structure has a 3D framework
# The original CSD entry ZIFZOG is in the triclinic crystal system
# The framework has been calculated to contain at least 10.0% void space
# The void calculation uses a probe of radius 1.32A, grid spacing 0.4
# The framework is charged, counterions have been retained in the structure
# H atom positions have been added when not included in the experimental data
#
###############################################################################

data_ZIFZOG
_chemical_formula_moiety         '(C84 H44 Eu4 N4 O34 4-)n'
_symmetry_cell_setting           triclinic
_symmetry_space_group_name_H-M   'P 1'
_symmetry_Int_Tables_number      1
_space_group_name_Hall           'P 1'
loop_
_symmetry_equiv_pos_site_id
_symmetry_equiv_pos_as_xyz
1 x,y,z
_cell_length_a                   9.7329(3)
_cell_length_b                   15.7974(5)
_cell_length_c                   17.7693(6)
_cell_angle_alpha                114.2950(10)
_cell_angle_beta                 91.0800(10)
_cell_angle_gamma                95.3620(10)
_cell_volume                     2474.31
loop_
_atom_site_label
_atom_site_type_symbol
_atom_site_fract_x
_atom_site_fract_y
_atom_site_fract_z
Eu1 Eu 0.40843(3) 0.768957(19) 0.12501(2)
Eu2 Eu 0.10933(3) 0.72379(2) 0.37186(2)
O1 O 0.1292(6) 0.6365(3) 0.2279(3)
O2 O 0.2777(6) 0.6405(3) 0.1353(4)
O4 O 0.5072(6) 0.2464(4) 0.0139(4)
C1 C 0.2930(7) 0.3193(4) 0.1207(4)
H1 H 0.3106 0.2585 0.1093
C2 C 0.3727(7) 0.3713(4) 0.0864(4)
C3 C 0.3485(7) 0.4630(4) 0.1047(4)
H2 H 0.4019 0.4980 0.0825
C4 C 0.2447(7) 0.5023(4) 0.1561(4)
C5 C 0.1645(7) 0.4500(4) 0.1892(4)
H3 H 0.0946 0.4765 0.2232
C6 C 0.1876(7) 0.3577(4) 0.1718(4)
C9 C 0.0769(7) 0.2067(5) 0.1728(5)
H5 H 0.1155 0.1726 0.1233
C10 C 0.1007(7) 0.3041(4) 0.2085(5)
C11 C 0.0412(9) 0.3504(5) 0.2829(5)
H6 H 0.0575 0.4152 0.3080
C17 C 0.0834(7) 0.0054(5) 0.1449(5)
H9 H 0.1696 0.0362 0.1448
C18 C 0.2159(7) 0.6012(4) 0.1749(4)
C19 C 0.4788(7) 0.3268(5) 0.0273(4)
O17 O 0.5241(7) 0.7407(5) 0.2370(4)
O18 O 0.2513(11) 0.8358(9) 0.4913(6)
O19 O 0.4660(6) 0.6285(3) 0.0118(3)
O21 O 0.1744(5) 0.7669(4) 0.0662(4)
O22 O 0.3077(5) 0.8990(3) 0.1020(4)
O23 O 0.6772(5) 0.7750(4) 0.1227(4)
O24 O 0.5850(5) 0.9079(4) 0.1692(4)
O25 O 0.2456(5) 0.6119(4) 0.3941(4)
O26 O 0.3636(6) 0.7063(4) 0.3496(4)
O29 O 0.1472(8) 0.8471(4) 0.3337(5)
O30 O 0.3030(7) 0.8500(3) 0.2462(4)
H19 H 0.552336 0.676513 0.214042
H20 H 0.60713 0.786825 0.260723
H21 H 0.282175 0.892084 0.481738
H22 H 0.196513 0.854 0.54106
O3 O 0.5340(6) 0.3715(3) 0.9882(3)
Eu5 Eu 0.59157(3) 0.231043(19) 0.87499(2)
O20 O 0.4928(6) 0.7536(4) 0.9861(4)
C12 C 0.0661(7) 0.9077(5) 0.1139(5)
C20 C 0.1893(7) 0.8541(5) 0.0901(5)
O9 O 0.8679(5) 0.6795(4) 0.3138(4)
O10 O 0.9576(5) 0.5704(3) 0.3385(3)
O13 O 0.0285(7) 0.2682(4) 0.5058(4)
O14 O 0.0307(10) 0.1526(5) 0.5454(5)
C7 C 0.9408(9) 0.2151(5) 0.2847(6)
H4 H 0.8856 0.1849 0.3103
C8 C 0.9961(7) 0.1608(5) 0.2108(5)
C15 C 0.8445(7) 0.0105(5) 0.1767(5)
H8 H 0.7708 0.0445 0.1986
C16 C 0.9723(7) 0.0572(5) 0.1760(5)
C22 C 0.4716(7) 0.5780(5) 0.3501(5)
C23 C 0.6037(7) 0.6177(5) 0.3476(5)
H10 H 0.6194 0.6809 0.3591
C24 C 0.7129(6) 0.5627(4) 0.3278(4)
C25 C 0.6879(7) 0.4682(5) 0.3085(4)
H11 H 0.7607 0.4315 0.2943
C26 C 0.5557(7) 0.4270(4) 0.3098(4)
C27 C 0.4487(7) 0.4838(5) 0.3329(5)
H12 H 0.3607 0.4580 0.3369
C28 C 0.5923(10) 0.2658(5) 0.2137(6)
H13 H 0.6530 0.2925 0.1877
C29 C 0.4829(11) 0.1352(5) 0.2217(6)
H14 H 0.4678 0.0704 0.2007
C30 C 0.4141(7) 0.1862(5) 0.2902(5)
C31 C 0.4389(8) 0.2840(5) 0.3204(5)
H15 H 0.3946 0.3216 0.3663
C32 C 0.5293(7) 0.3246(5) 0.2820(4)
C33 C 0.1465(10) 0.0412(5) 0.3982(6)
H16 H 0.0910 0.0093 0.4224
C35 C 0.3147(9) 0.0415(5) 0.3014(5)
H17 H 0.3719 0.0089 0.2605
C36 C 0.3190(8) 0.1381(4) 0.3281(5)
C37 C 0.2323(9) 0.1847(5) 0.3898(5)
H18 H 0.2307 0.2487 0.4071
C38 C 0.1489(10) 0.1381(5) 0.4259(6)
C39 C 0.8548(7) 0.6065(5) 0.3266(5)
C40 C 0.3536(7) 0.6358(5) 0.3667(5)
C41 C 0.0641(11) 0.1902(5) 0.4968(6)
N1 N 0.9627(9) 0.3082(5) 0.3206(6)
N2 N 0.5699(11) 0.1726(5) 0.1835(6)
O27 O 0.9715(7) 0.7318(4) 0.4942(4)
O28 O 0.9693(10) 0.8474(5) 0.4546(5)
C13 C 0.9364(7) 0.8623(5) 0.1142(5)
H7 H 0.9240 0.7974 0.0934
C14 C 0.8251(7) 0.9128(5) 0.1450(5)
C21 C 0.6874(7) 0.8621(5) 0.1458(4)
C34 C 0.2277(9) 0.9929(5) 0.3342(5)
C42 C 0.2247(9) 0.8882(5) 0.3019(5)
Eu8 Eu 0.89067(3) 0.27621(2) 0.62814(2)
O7 O 0.3228(5) 0.2250(4) 0.8773(4)
O8 O 0.4150(5) 0.0921(4) 0.8308(4)
O15 O 0.8528(8) 0.1529(4) 0.6663(5)
O16 O 0.6970(7) 0.1500(3) 0.7538(4)
C13_2 C 0.0636(7) 0.1377(5) 0.8858(5)
H7_2 H 0.0760 0.2026 0.9066
C14_2 C 0.1749(7) 0.0872(5) 0.8550(5)
C21_2 C 0.3126(7) 0.1379(5) 0.8542(4)
C34_2 C 0.7723(9) 0.0071(5) 0.6658(5)
C42_2 C 0.7753(9) 0.1118(5) 0.6981(5)
O9_2 O 0.1321(5) 0.3205(4) 0.6862(4)
O10_2 O 0.0424(5) 0.4296(3) 0.6615(3)
O11 O 0.7544(5) 0.3881(4) 0.6059(4)
O12 O 0.6364(6) 0.2937(4) 0.6504(4)
C7_2 C 0.0592(9) 0.7849(5) 0.7153(6)
H4_2 H 0.1144 0.8151 0.6897
C8_2 C 0.0039(7) 0.8392(5) 0.7892(5)
C15_2 C 0.1555(7) 0.9895(5) 0.8233(5)
H8_2 H 0.2292 0.9555 0.8014
C16_2 C 0.0277(7) 0.9428(5) 0.8240(5)
C22_2 C 0.5284(7) 0.4220(5) 0.6499(5)
C23_2 C 0.3963(7) 0.3823(5) 0.6524(5)
H10_2 H 0.3806 0.3191 0.6409
C24_2 C 0.2871(6) 0.4373(4) 0.6722(4)
C25_2 C 0.3121(7) 0.5318(5) 0.6915(4)
H11_2 H 0.2393 0.5685 0.7057
C26_2 C 0.4443(7) 0.5730(4) 0.6902(4)
C27_2 C 0.5513(7) 0.5162(5) 0.6671(5)
H12_2 H 0.6393 0.5420 0.6631
C28_2 C 0.4077(10) 0.7342(5) 0.7863(6)
H13_2 H 0.3470 0.7075 0.8123
C29_2 C 0.5171(11) 0.8648(5) 0.7783(6)
H14_2 H 0.5322 0.9296 0.7993
C30_2 C 0.5859(7) 0.8138(5) 0.7098(5)
C31_2 C 0.5611(8) 0.7160(5) 0.6796(5)
H15_2 H 0.6054 0.6784 0.6337
C32_2 C 0.4707(7) 0.6754(5) 0.7180(4)
C33_2 C 0.8535(10) 0.9588(5) 0.6018(6)
H16_2 H 0.9090 0.9907 0.5776
C35_2 C 0.6853(9) 0.9585(5) 0.6986(5)
H17_2 H 0.6281 0.9911 0.7395
C36_2 C 0.6810(8) 0.8619(4) 0.6719(5)
C37_2 C 0.7677(9) 0.8153(5) 0.6102(5)
H18_2 H 0.7693 0.7513 0.5929
C38_2 C 0.8511(10) 0.8619(5) 0.5741(6)
C39_2 C 0.1452(7) 0.3935(5) 0.6734(5)
C40_2 C 0.6464(7) 0.3642(5) 0.6333(5)
C41_2 C 0.9359(11) 0.8098(5) 0.5032(6)
N1_2 N 0.0373(9) 0.6918(5) 0.6794(6)
N2_2 N 0.4301(11) 0.8274(5) 0.8165(6)
O5 O 0.8256(5) 0.2331(4) 0.9338(4)
O6 O 0.6923(5) 0.1010(3) 0.8980(4)
C12_2 C 0.9339(7) 0.0923(5) 0.8861(5)
C20_2 C 0.8107(7) 0.1459(5) 0.9099(5)
O1_2 O 0.8708(6) 0.3635(3) 0.7721(3)
O2_2 O 0.7223(6) 0.3595(3) 0.8647(4)
C1_2 C 0.7070(7) 0.6807(4) 0.8793(4)
H1_2 H 0.6894 0.7415 0.8907
C2_2 C 0.6273(7) 0.6287(4) 0.9136(4)
C3_2 C 0.6515(7) 0.5370(4) 0.8953(4)
H2_2 H 0.5981 0.5020 0.9175
C4_2 C 0.7553(7) 0.4977(4) 0.8439(4)
C5_2 C 0.8355(7) 0.5500(4) 0.8108(4)
H3_2 H 0.9054 0.5235 0.7768
C6_2 C 0.8124(7) 0.6423(4) 0.8282(4)
C9_2 C 0.9231(7) 0.7933(5) 0.8272(5)
H5_2 H 0.8845 0.8274 0.8767
C10_2 C 0.8993(7) 0.6959(4) 0.7915(5)
C11_2 C 0.9588(9) 0.6496(5) 0.7171(5)
H6_2 H 0.9425 0.5848 0.6920
C17_2 C 0.9166(7) 0.9946(5) 0.8551(5)
H9_2 H 0.8304 0.9638 0.8552
C18_2 C 0.7841(7) 0.3988(4) 0.8251(4)
C19_2 C 0.5212(7) 0.6732(5) 0.9727(4)
O17_2 O 0.4759(7) 0.2593(5) 0.7630(4)
O18_2 O 0.7487(11) 0.1642(9) 0.5087(6)
H19_2 H 0.447664 0.323487 0.785958
H20_2 H 0.39287 0.213175 0.739277
H21_2 H 0.717825 0.107916 0.518262
H22_2 H 0.803487 0.146 0.45894
loop_
_geom_bond_atom_site_label_1
_geom_bond_atom_site_label_2
_geom_bond_site_symmetry_1
_geom_bond_site_symmetry_2
Eu1 O2 1_555 1_555
Eu2 O1 1_555 1_555
O1 C18 1_555 1_555
O2 C18 1_555 1_555
O4 C19 1_555 1_555
C1 H1 1_555 1_555
C2 C1 1_555 1_555
C3 C2 1_555 1_555
H2 C3 1_555 1_555
C4 C3 1_555 1_555
C5 C4 1_555 1_555
H3 C5 1_555 1_555
C6 C1 1_555 1_555
H5 C9 1_555 1_555
C10 C6 1_555 1_555
C11 C10 1_555 1_555
H6 C11 1_555 1_555
H9 C17 1_555 1_555
C18 C4 1_555 1_555
C19 C2 1_555 1_555
O17 Eu1 1_555 1_555
O18 Eu2 1_555 1_555
O19 Eu1 1_555 1_555
O21 Eu1 1_555 1_555
O22 Eu1 1_555 1_555
O23 Eu1 1_555 1_555
O24 Eu1 1_555 1_555
O25 Eu2 1_555 1_555
O26 Eu2 1_555 1_555
O29 Eu2 1_555 1_555
O30 Eu1 1_555 1_555
C5 C6 1_555 1_555
C9 C10 1_555 1_555
O17 H19 1_555 1_555
O17 H20 1_555 1_555
O18 H21 1_555 1_555
O18 H22 1_555 1_555
Eu5 O3 1_555 1_555
O21 C20 1_555 1_555
O22 C20 1_555 1_555
C20 C12 1_555 1_555
O25 C40 1_555 1_555
O26 C40 1_555 1_555
O13 C41 1_555 1_555
O14 C41 1_555 1_555
C7 H4 1_555 1_555
C8 C7 1_555 1_555
H8 C15 1_555 1_555
C16 C8 1_555 1_555
C22 C23 1_555 1_555
C23 H10 1_555 1_555
C24 C23 1_555 1_555
C25 C24 1_555 1_555
H11 C25 1_555 1_555
C26 C25 1_555 1_555
C27 C22 1_555 1_555
H12 C27 1_555 1_555
C28 H13 1_555 1_555
C29 H14 1_555 1_555
C30 C29 1_555 1_555
C31 C30 1_555 1_555
H15 C31 1_555 1_555
C32 C26 1_555 1_555
C33 H16 1_555 1_555
H17 C35 1_555 1_555
C36 C30 1_555 1_555
C37 C36 1_555 1_555
H18 C37 1_555 1_555
C38 C33 1_555 1_555
C39 O9 1_555 1_555
C40 C22 1_555 1_555
C41 C38 1_555 1_555
N1 C7 1_555 1_555
N2 C28 1_555 1_555
O10 C39 1_555 1_555
C15 C16 1_555 1_555
C24 C39 1_555 1_555
C26 C27 1_555 1_555
C28 C32 1_555 1_555
C29 N2 1_555 1_555
C31 C32 1_555 1_555
C35 C36 1_555 1_555
C37 C38 1_555 1_555
O23 C21 1_555 1_555
O24 C21 1_555 1_555
O29 C42 1_555 1_555
O30 C42 1_555 1_555
C13 H7 1_555 1_555
C14 C13 1_555 1_555
C21 C14 1_555 1_555
C42 C34 1_555 1_555
O7 C21_2 1_555 1_555
O8 C21_2 1_555 1_555
O15 C42_2 1_555 1_555
O16 C42_2 1_555 1_555
C13_2 H7_2 1_555 1_555
C14_2 C13_2 1_555 1_555
C21_2 C14_2 1_555 1_555
C42_2 C34_2 1_555 1_555
Eu5 O7 1_555 1_555
Eu8 O15 1_555 1_555
O8 Eu5 1_555 1_555
O16 Eu5 1_555 1_555
O11 C40_2 1_555 1_555
O12 C40_2 1_555 1_555
O27 C41_2 1_555 1_555
O28 C41_2 1_555 1_555
C7_2 H4_2 1_555 1_555
C8_2 C7_2 1_555 1_555
H8_2 C15_2 1_555 1_555
C16_2 C8_2 1_555 1_555
C22_2 C23_2 1_555 1_555
C23_2 H10_2 1_555 1_555
C24_2 C23_2 1_555 1_555
C25_2 C24_2 1_555 1_555
H11_2 C25_2 1_555 1_555
C26_2 C25_2 1_555 1_555
C27_2 C22_2 1_555 1_555
H12_2 C27_2 1_555 1_555
C28_2 H13_2 1_555 1_555
C29_2 H14_2 1_555 1_555
C30_2 C29_2 1_555 1_555
C31_2 C30_2 1_555 1_555
H15_2 C31_2 1_555 1_555
C32_2 C26_2 1_555 1_555
C33_2 H16_2 1_555 1_555
H17_2 C35_2 1_555 1_555
C36_2 C30_2 1_555 1_555
C37_2 C36_2 1_555 1_555
H18_2 C37_2 1_555 1_555
C38_2 C33_2 1_555 1_555
C39_2 O9_2 1_555 1_555
C40_2 C22_2 1_555 1_555
C41_2 C38_2 1_555 1_555
N1_2 C7_2 1_555 1_555
N2_2 C28_2 1_555 1_555
Eu8 O11 1_555 1_555
O10_2 C39_2 1_555 1_555
O12 Eu8 1_555 1_555
C15_2 C16_2 1_555 1_555
C24_2 C39_2 1_555 1_555
C26_2 C27_2 1_555 1_555
C28_2 C32_2 1_555 1_555
C29_2 N2_2 1_555 1_555
C31_2 C32_2 1_555 1_555
C35_2 C36_2 1_555 1_555
C37_2 C38_2 1_555 1_555
O5 C20_2 1_555 1_555
O6 C20_2 1_555 1_555
C20_2 C12_2 1_555 1_555
Eu5 O5 1_555 1_555
O6 Eu5 1_555 1_555
Eu5 O2_2 1_555 1_555
Eu8 O1_2 1_555 1_555
O1_2 C18_2 1_555 1_555
O2_2 C18_2 1_555 1_555
O20 C19_2 1_555 1_555
C1_2 H1_2 1_555 1_555
C2_2 C1_2 1_555 1_555
C3_2 C2_2 1_555 1_555
H2_2 C3_2 1_555 1_555
C4_2 C3_2 1_555 1_555
C5_2 C4_2 1_555 1_555
H3_2 C5_2 1_555 1_555
C6_2 C1_2 1_555 1_555
H5_2 C9_2 1_555 1_555
C10_2 C6_2 1_555 1_555
C11_2 C10_2 1_555 1_555
H6_2 C11_2 1_555 1_555
H9_2 C17_2 1_555 1_555
C18_2 C4_2 1_555 1_555
C19_2 C2_2 1_555 1_555
O17_2 Eu5 1_555 1_555
O18_2 Eu8 1_555 1_555
C5_2 C6_2 1_555 1_555
C9_2 C10_2 1_555 1_555
O17_2 H19_2 1_555 1_555
O17_2 H20_2 1_555 1_555
O18_2 H21_2 1_555 1_555
O18_2 H22_2 1_555 1_555

#END
