####################################################################### 
# 
# This file contains crystal structure data downloaded from the 
# Cambridge Structural Database (CSD) hosted by the Cambridge 
# Crystallographic Data Centre (CCDC).
# 
# Full information about CCDC data access policies and citation 
# guidelines are available at http://www.ccdc.cam.ac.uk/access/V1 
# 
# Audit and citation data items may have been added by the CCDC. 
# Please retain this information to preserve the provenance of 
# this file and to allow appropriate attribution of the data. 
# 
#######################################################################

data_compound_2
_audit_block_doi                 10.5517/cc112qlf
_database_code_depnum_ccdc_archive 'CCDC 955934'
loop_
_citation_id
_citation_doi
_citation_year
1 10.1021/ja1027925 2010
_audit_update_record             
;
2013-08-15 deposited with the CCDC.	2024-07-14 downloaded from the CCDC.
;


_audit_creation_method           'manually at CCDC'


_chemical_name_systematic        
;  

;
_chemical_formula_sum            ?
_chemical_formula_moiety         ?
_chemical_formula_weight         ?
_chemical_melting_point          ?

_symmetry_cell_setting           Cubic
_symmetry_space_group_name_H-M   Fm-3m


_cell_length_a                   25.9557(18)
_cell_length_b                   25.9557(18)
_cell_length_c                   25.9557(18)
_cell_angle_alpha                90
_cell_angle_beta                 90
_cell_angle_gamma                90
_cell_volume                     ?
_cell_formula_units_Z            ?

_exptl_crystal_density_diffrn    ?
_exptl_crystal_description       ?
_exptl_crystal_colour            ?
_exptl_special_details           
;

;

_diffrn_ambient_temperature      ?
_diffrn_radiation_probe          x-ray

_refine_ls_R_factor_gt           ?
_refine_special_details          
; 

;

loop_
_atom_site_label
_atom_site_fract_x
_atom_site_fract_y
_atom_site_fract_z
_atom_site_U_iso_or_equiv
Cr1 0.2880(16) 0.2880(16) 0.0 0.004(2)
O11 0.3198(7) 0.2481(7) 0.9428(7) 0.0177(8)
C10 0.296709 0.203291 0.929149 0.159(6)
C1 0.322242 0.177757 0.885963 0.159(6)
C2 0.364608 0.200562 0.864608 0.159(6)
H1 0.379212 0.233690 -0.120788 0.159(6)
O2a 0.3417(6) 0.3417(6) 0 0.159(6)
O1 0.169(1) 0.169(1) 0.169(1) 0.14(6)






#END 


