
###############################################################################
#
# This file contains modified crystal structure data generated from the
# MOF subset of the Cambridge Structural Database (CSD) v543 
# hosted by the Cambridge Crystallographic Data Centre (CCDC).
#
# This work is licensed under the Creative Commons
# Attribution-NonCommercial-ShareAlike 4.0 International License.
# To view a copy of this license, visit
# http://creativecommons.org/licenses/by-nc-sa/4.0/
# or send a letter to
# Creative Commons, PO Box 1866, Mountain View, CA 94042, USA.
#
# CIF created using the CSD Python API on 29 September 2022
# The structure has been converted into the P1 space group
# The structure has a 3D framework
# The original CSD entry ZIGQUE is in the monoclinic crystal system
# The framework has been calculated to contain at least 10.0% void space
# The void calculation uses a probe of radius 1.32A, grid spacing 0.4
#
###############################################################################

data_ZIGQUE
_chemical_formula_moiety         '(C84 H60 Gd4 N4 O44 P4)n'
_symmetry_cell_setting           triclinic
_symmetry_space_group_name_H-M   'P 1'
_symmetry_Int_Tables_number      1
_space_group_name_Hall           'P 1'
loop_
_symmetry_equiv_pos_site_id
_symmetry_equiv_pos_as_xyz
1 x,y,z
_cell_length_a                   11.6158(8)
_cell_length_b                   17.6060(11)
_cell_length_c                   14.8927(10)
_cell_angle_alpha                90
_cell_angle_beta                 91.3030(10)
_cell_angle_gamma                90
_cell_volume                     3044.89
loop_
_atom_site_label
_atom_site_type_symbol
_atom_site_fract_x
_atom_site_fract_y
_atom_site_fract_z
O9 O 0.0180(3) 0.30432(13) 0.36578(15)
O10 O 0.0808(3) 0.27885(15) 0.23281(17)
N1 N 0.0230(2) 0.31707(14) 0.28370(16)
O13 O 0.11239(15) 0.45947(12) 0.37664(12)
O14 O 0.02016(17) 0.41078(12) 0.54181(13)
Gd1 Gd 0.92061(2) 0.42874(2) 0.40771(2)
P1 P 0.66311(5) 0.41942(3) 0.24901(4)
O1 O 0.75060(15) 0.41991(9) 0.32364(12)
O2 O 0.20603(15) 0.51480(12) 0.49143(12)
O6 O 0.52016(17) 0.08922(12) 0.04181(13)
O7 O 0.60069(18) 0.04689(11) 0.16737(14)
O8 O 0.96943(18) 0.37293(13) 0.25464(13)
O11 O 0.81194(19) 0.32324(12) 0.47246(16)
H2 H 0.8572 0.2859 0.4819
H3 H 0.7584 0.3099 0.4358
C1 C 0.5233(2) 0.44172(14) 0.29109(17)
C2 C 0.5164(2) 0.49181(17) 0.36145(19)
H4 H 0.5826 0.5161 0.3829
C3 C 0.4122(2) 0.50649(19) 0.40068(18)
H5 H 0.4086 0.5409 0.4479
C4 C 0.3138(2) 0.47064(15) 0.37039(16)
C5 C 0.3195(3) 0.42230(19) 0.2974(2)
H6 H 0.2527 0.3999 0.2744
C6 C 0.4243(2) 0.4070(2) 0.2584(2)
H7 H 0.4279 0.3734 0.2103
C7 C 0.2018(2) 0.48262(15) 0.41647(17)
C8 C 0.6949(2) 0.48502(14) 0.16039(17)
C9 C 0.8025(3) 0.48311(19) 0.1230(2)
H8 H 0.8572 0.4484 0.1439
C10 C 0.8290(3) 0.5327(2) 0.0546(2)
H9 H 0.9011 0.5303 0.0290
C11 C 0.7502(3) 0.58577(16) 0.0238(2)
C12 C 0.6447(3) 0.5888(2) 0.0625(3)
H10 H 0.5912 0.6248 0.0429
C13 C 0.6163(3) 0.5391(2) 0.1305(2)
H11 H 0.5442 0.5420 0.1562
C15 C 0.6502(2) 0.32579(14) 0.20098(15)
C16 C 0.6727(3) 0.26476(15) 0.25715(18)
H12 H 0.7046 0.2729 0.3142
C17 C 0.6479(3) 0.19175(16) 0.22863(18)
H13 H 0.6628 0.1508 0.2666
C18 C 0.6010(2) 0.17935(14) 0.14396(16)
C19 C 0.5826(2) 0.23988(17) 0.08640(16)
H14 H 0.5539 0.2314 0.0285
C20 C 0.6069(2) 0.31349(15) 0.11474(17)
H15 H 0.5941 0.3543 0.0761
C21 C 0.5718(2) 0.10001(16) 0.11580(18)
Gd4 Gd 0.07939(2) 0.57126(2) 0.59229(2)
O12 O 0.79397(15) 0.48520(12) 0.50857(12)
O15 O 0.89931(18) 0.54689(11) 0.33263(14)
O4 O 0.8779(2) 0.62783(15) 0.91506(16)
H1 H 0.8871 0.6565 0.8724
O5 O 0.7086(2) 0.68745(13) 0.92195(15)
C14 C 0.7747(3) 0.63955(18) 0.94903(19)
Gd5 Gd 0.42061(2) 0.07126(2) 0.90771(2)
Gd3 Gd 0.57939(2) 0.92874(2) 0.09229(2)
O2_2 O 0.29397(15) 0.01480(12) 0.00857(12)
C3_2 C 0.0878(2) 0.00649(19) 0.09932(18)
H5_2 H 0.0914 0.0409 0.0521
O3 O 0.38761(15) 0.95947(12) 0.12336(12)
C4_2 C 0.1862(2) 0.97064(15) 0.12961(16)
C5_2 C 0.1805(3) 0.92230(19) 0.2026(2)
H6_2 H 0.2473 0.8999 0.2256
C6_2 C 0.0757(2) 0.9070(2) 0.2416(2)
H7_2 H 0.0721 0.8734 0.2897
C7_2 C 0.2982(2) 0.98262(15) 0.08353(17)
O4_2 O 0.6221(2) 0.12783(15) 0.58494(16)
H1_2 H 0.6129 0.1565 0.6276
O5_2 O 0.7914(2) 0.18745(13) 0.57805(15)
H4_2 H 0.9174 0.0161 0.1171
C10_2 C 0.6710(3) 0.0327(2) 0.4454(2)
H9_2 H 0.5989 0.0303 0.4710
C11_2 C 0.7498(3) 0.08577(16) 0.4762(2)
C12_2 C 0.8553(3) 0.0888(2) 0.4375(3)
H10_2 H 0.9088 0.1248 0.4571
C13_2 C 0.8837(3) 0.0391(2) 0.3695(2)
H11_2 H 0.9558 0.0420 0.3438
C14_2 C 0.7253(3) 0.13955(18) 0.55097(19)
P1_2 P 0.83689(5) 0.91942(3) 0.25099(4)
O1_2 O 0.74940(15) 0.91991(9) 0.17636(12)
O6_2 O 0.97984(17) 0.58922(12) 0.45819(13)
O8_2 O 0.53057(18) 0.87293(13) 0.24536(13)
O9_2 O 0.4820(3) 0.80432(13) 0.13422(15)
O10_2 O 0.4192(3) 0.77885(15) 0.26719(17)
O11_2 O 0.68806(19) 0.82324(12) 0.02754(16)
H2_2 H 0.6428 0.7859 0.0181
H3_2 H 0.7416 0.8099 0.0642
N1_2 N 0.4770(2) 0.81707(14) 0.21630(16)
C1_2 C 0.9767(2) 0.94172(14) 0.20891(17)
C2_2 C 0.9836(2) 0.99181(17) 0.13855(19)
C8_2 C 0.8051(2) 0.98502(14) 0.33961(17)
C9_2 C 0.6975(3) 0.98311(19) 0.3770(2)
H8_2 H 0.6428 0.9484 0.3561
C15_2 C 0.8498(2) 0.82579(14) 0.29902(15)
C16_2 C 0.8273(3) 0.76476(15) 0.24285(18)
H12_2 H 0.7954 0.7729 0.1858
C17_2 C 0.8521(3) 0.69175(16) 0.27137(18)
H13_2 H 0.8372 0.6508 0.2334
C18_2 C 0.8990(2) 0.67935(14) 0.35604(16)
C19_2 C 0.9174(2) 0.73988(17) 0.41360(16)
H14_2 H 0.9461 0.7314 0.4715
C20_2 C 0.8931(2) 0.81349(15) 0.38526(17)
H15_2 H 0.9059 0.8543 0.4239
C21_2 C 0.9282(2) 0.60001(16) 0.38420(18)
O12_2 O 0.70603(15) 0.98520(12) 0.99143(12)
O14_2 O 0.47984(17) 0.91078(12) 0.95819(13)
O4_3 O 0.1221(2) 0.37217(15) 0.08494(16)
H1_3 H 0.1129 0.3435 0.1276
O5_3 O 0.2914(2) 0.31255(13) 0.07805(15)
C14_3 C 0.2253(3) 0.36045(18) 0.05097(19)
P1_3 P 0.33689(5) 0.58058(3) 0.75099(4)
O1_3 O 0.24940(15) 0.58009(9) 0.67636(12)
O3_2 O 0.88761(15) 0.54053(12) 0.62336(12)
O7_2 O 0.39931(18) 0.95311(11) 0.83263(14)
O8_3 O 0.03057(18) 0.62707(13) 0.74536(13)
O11_3 O 0.18806(19) 0.67676(12) 0.52754(16)
H2_3 H 0.1428 0.7141 0.5181
H3_3 H 0.2416 0.6901 0.5642
C1_3 C 0.4767(2) 0.55828(14) 0.70891(17)
C2_3 C 0.4836(2) 0.50819(17) 0.63855(19)
H4_3 H 0.4174 0.4839 0.6171
C3_3 C 0.5878(2) 0.49351(19) 0.59932(18)
H5_3 H 0.5914 0.4591 0.5521
C4_3 C 0.6862(2) 0.52936(15) 0.62961(16)
C5_3 C 0.6805(3) 0.57770(19) 0.7026(2)
H6_3 H 0.7473 0.6001 0.7256
C6_3 C 0.5757(2) 0.5930(2) 0.7416(2)
H7_3 H 0.5721 0.6266 0.7897
C7_3 C 0.7982(2) 0.51738(15) 0.58353(17)
C8_3 C 0.3051(2) 0.51498(14) 0.83961(17)
C9_3 C 0.1975(3) 0.51689(19) 0.8770(2)
H8_3 H 0.1428 0.5516 0.8561
C10_3 C 0.1710(3) 0.4673(2) 0.9454(2)
H9_3 H 0.0989 0.4697 0.9710
C11_3 C 0.2498(3) 0.41423(16) 0.9762(2)
C12_3 C 0.3553(3) 0.4112(2) 0.9375(3)
H10_3 H 0.4088 0.3752 0.9571
C13_3 C 0.3837(3) 0.4609(2) 0.8695(2)
H11_3 H 0.4558 0.4580 0.8438
C15_3 C 0.3498(2) 0.67421(14) 0.79902(15)
C16_3 C 0.3273(3) 0.73524(15) 0.74285(18)
H12_3 H 0.2954 0.7271 0.6858
C17_3 C 0.3521(3) 0.80825(16) 0.77137(18)
H13_3 H 0.3372 0.8492 0.7334
C18_3 C 0.3990(2) 0.82065(14) 0.85604(16)
C19_3 C 0.4174(2) 0.76012(17) 0.91360(16)
H14_3 H 0.4461 0.7686 0.9715
C20_3 C 0.3931(2) 0.68651(15) 0.88526(17)
H15_3 H 0.4059 0.6457 0.9239
C21_3 C 0.4282(2) 0.89999(16) 0.88420(18)
O15_2 O 0.10069(18) 0.45311(11) 0.66737(14)
O9_3 O 0.9820(3) 0.69568(13) 0.63422(15)
O10_3 O 0.9192(3) 0.72115(15) 0.76719(17)
N1_3 N 0.9770(2) 0.68293(14) 0.71630(16)
P1_4 P 0.16311(5) 0.08058(3) 0.74901(4)
O1_4 O 0.25060(15) 0.08009(9) 0.82364(12)
O8_4 O 0.46943(18) 0.12707(13) 0.75464(13)
O9_4 O 0.5180(3) 0.19568(13) 0.86578(15)
O10_4 O 0.5808(3) 0.22115(15) 0.73281(17)
O11_4 O 0.31194(19) 0.17676(12) 0.97246(16)
H2_4 H 0.3572 0.2141 0.9819
H3_4 H 0.2584 0.1901 0.9358
N1_4 N 0.5230(2) 0.18293(14) 0.78370(16)
C1_4 C 0.0233(2) 0.05828(14) 0.79109(17)
C2_4 C 0.0164(2) 0.00819(17) 0.86145(19)
C8_4 C 0.1949(2) 0.01498(14) 0.66039(17)
C9_4 C 0.3025(3) 0.01689(19) 0.6230(2)
H8_4 H 0.3572 0.0516 0.6439
C15_4 C 0.1502(2) 0.17421(14) 0.70098(15)
C16_4 C 0.1727(3) 0.23524(15) 0.75715(18)
H12_4 H 0.2046 0.2271 0.8142
C17_4 C 0.1479(3) 0.30825(16) 0.72863(18)
H13_4 H 0.1628 0.3492 0.7666
C18_4 C 0.1010(2) 0.32065(14) 0.64396(16)
C19_4 C 0.0826(2) 0.26012(17) 0.58640(16)
H14_4 H 0.0539 0.2686 0.5285
C20_4 C 0.1069(2) 0.18651(15) 0.61474(17)
H15_4 H 0.0941 0.1457 0.5761
C21_4 C 0.0718(2) 0.39999(16) 0.61580(18)
O13_2 O 0.61239(15) 0.04053(12) 0.87664(12)
O4_4 O 0.3779(2) 0.87217(15) 0.41506(16)
H1_4 H 0.3871 0.8435 0.3724
O5_4 O 0.2086(2) 0.81255(13) 0.42195(15)
H4_4 H 0.0826 0.9839 0.8829
C10_4 C 0.3290(3) 0.9673(2) 0.5546(2)
H9_4 H 0.4011 0.9697 0.5290
C11_4 C 0.2502(3) 0.91423(16) 0.5238(2)
C12_4 C 0.1447(3) 0.9112(2) 0.5625(3)
H10_4 H 0.0912 0.8752 0.5429
C13_4 C 0.1163(3) 0.9609(2) 0.6305(2)
H11_4 H 0.0442 0.9580 0.6562
C14_4 C 0.2747(3) 0.86045(18) 0.44903(19)
C4_4 C 0.8138(2) 0.02936(15) 0.87039(16)
C5_4 C 0.8195(3) 0.07770(19) 0.7974(2)
H6_4 H 0.7527 0.1001 0.7744
C6_4 C 0.9243(2) 0.0930(2) 0.7584(2)
H7_4 H 0.9279 0.1266 0.7103
C7_4 C 0.7018(2) 0.01738(15) 0.91647(17)
C3_4 C 0.9122(2) 0.99351(19) 0.90068(18)
H5_4 H 0.9086 0.9591 0.9479
loop_
_geom_bond_atom_site_label_1
_geom_bond_atom_site_label_2
_geom_bond_site_symmetry_1
_geom_bond_site_symmetry_2
O10 N1 1_555 1_555
O9 N1 1_555 1_555
Gd1 O1 1_555 1_555
P1 O1 1_555 1_555
O2 C7 1_555 1_555
O13 C7 1_555 1_555
O6 C21 1_555 1_555
O7 C21 1_555 1_555
O8 Gd1 1_555 1_555
O11 Gd1 1_555 1_555
H2 O11 1_555 1_555
H3 O11 1_555 1_555
C1 P1 1_555 1_555
C2 C1 1_555 1_555
H4 C2 1_555 1_555
C3 C2 1_555 1_555
H5 C3 1_555 1_555
C4 C3 1_555 1_555
C5 C4 1_555 1_555
H6 C5 1_555 1_555
C6 C1 1_555 1_555
H7 C6 1_555 1_555
C7 C4 1_555 1_555
C8 P1 1_555 1_555
C9 C8 1_555 1_555
H8 C9 1_555 1_555
C10 C9 1_555 1_555
H9 C10 1_555 1_555
C11 C10 1_555 1_555
C12 C11 1_555 1_555
H10 C12 1_555 1_555
C13 C8 1_555 1_555
H11 C13 1_555 1_555
C15 P1 1_555 1_555
C16 C15 1_555 1_555
H12 C16 1_555 1_555
C17 C16 1_555 1_555
H13 C17 1_555 1_555
C18 C17 1_555 1_555
C19 C18 1_555 1_555
H14 C19 1_555 1_555
C20 C15 1_555 1_555
H15 C20 1_555 1_555
C21 C18 1_555 1_555
Gd4 O2 1_555 1_555
O12 Gd1 1_555 1_555
O15 Gd1 1_555 1_555
C5 C6 1_555 1_555
C12 C13 1_555 1_555
C19 C20 1_555 1_555
O4 H1 1_555 1_555
O5 C14 1_555 1_555
C14 O4 1_555 1_555
H5_2 C3_2 1_555 1_555
O3 C7_2 1_555 1_555
C5_2 C4_2 1_555 1_555
H6_2 C5_2 1_555 1_555
H7_2 C6_2 1_555 1_555
C7_2 C4_2 1_555 1_555
Gd3 O3 1_555 1_555
C5_2 C6_2 1_555 1_555
O4_2 H1_2 1_555 1_555
O5_2 C14_2 1_555 1_555
H9_2 C10_2 1_555 1_555
C11_2 C10_2 1_555 1_555
C12_2 C11_2 1_555 1_555
H10_2 C12_2 1_555 1_555
H11_2 C13_2 1_555 1_555
C14_2 O4_2 1_555 1_555
C11_2 C14_2 1_555 1_555
C12_2 C13_2 1_555 1_555
Gd3 O1_2 1_555 1_555
P1_2 O1_2 1_555 1_555
O6_2 C21_2 1_555 1_555
O15 C21_2 1_555 1_555
O8_2 Gd3 1_555 1_555
O9_2 Gd3 1_555 1_555
O10_2 N1_2 1_555 1_555
O11_2 Gd3 1_555 1_555
H2_2 O11_2 1_555 1_555
H3_2 O11_2 1_555 1_555
N1_2 O8_2 1_555 1_555
C1_2 P1_2 1_555 1_555
C2_2 C1_2 1_555 1_555
C8_2 P1_2 1_555 1_555
C9_2 C8_2 1_555 1_555
H8_2 C9_2 1_555 1_555
C15_2 P1_2 1_555 1_555
C16_2 C15_2 1_555 1_555
H12_2 C16_2 1_555 1_555
C17_2 C16_2 1_555 1_555
H13_2 C17_2 1_555 1_555
C18_2 C17_2 1_555 1_555
C19_2 C18_2 1_555 1_555
H14_2 C19_2 1_555 1_555
C20_2 C15_2 1_555 1_555
H15_2 C20_2 1_555 1_555
C21_2 C18_2 1_555 1_555
O9_2 N1_2 1_555 1_555
C19_2 C20_2 1_555 1_555
O4_3 H1_3 1_555 1_555
O5_3 C14_3 1_555 1_555
C14_3 O4_3 1_555 1_555
Gd4 O1_3 1_555 1_555
P1_3 O1_3 1_555 1_555
O12 C7_3 1_555 1_555
O3_2 C7_3 1_555 1_555
O14_2 C21_3 1_555 1_555
O7_2 C21_3 1_555 1_555
O8_3 Gd4 1_555 1_555
O11_3 Gd4 1_555 1_555
H2_3 O11_3 1_555 1_555
H3_3 O11_3 1_555 1_555
C1_3 P1_3 1_555 1_555
C2_3 C1_3 1_555 1_555
H4_3 C2_3 1_555 1_555
C3_3 C2_3 1_555 1_555
H5_3 C3_3 1_555 1_555
C4_3 C3_3 1_555 1_555
C5_3 C4_3 1_555 1_555
H6_3 C5_3 1_555 1_555
C6_3 C1_3 1_555 1_555
H7_3 C6_3 1_555 1_555
C7_3 C4_3 1_555 1_555
C8_3 P1_3 1_555 1_555
C9_3 C8_3 1_555 1_555
H8_3 C9_3 1_555 1_555
C10_3 C9_3 1_555 1_555
H9_3 C10_3 1_555 1_555
C11_3 C10_3 1_555 1_555
C12_3 C11_3 1_555 1_555
H10_3 C12_3 1_555 1_555
C13_3 C8_3 1_555 1_555
H11_3 C13_3 1_555 1_555
C15_3 P1_3 1_555 1_555
C16_3 C15_3 1_555 1_555
H12_3 C16_3 1_555 1_555
C17_3 C16_3 1_555 1_555
H13_3 C17_3 1_555 1_555
C18_3 C17_3 1_555 1_555
C19_3 C18_3 1_555 1_555
H14_3 C19_3 1_555 1_555
C20_3 C15_3 1_555 1_555
H15_3 C20_3 1_555 1_555
C21_3 C18_3 1_555 1_555
O15_2 Gd4 1_555 1_555
C5_3 C6_3 1_555 1_555
C12_3 C13_3 1_555 1_555
C19_3 C20_3 1_555 1_555
O10_3 N1_3 1_555 1_555
O9_3 N1_3 1_555 1_555
Gd5 O1_4 1_555 1_555
P1_4 O1_4 1_555 1_555
O14 C21_4 1_555 1_555
O15_2 C21_4 1_555 1_555
O8_4 Gd5 1_555 1_555
O9_4 Gd5 1_555 1_555
O10_4 N1_4 1_555 1_555
O11_4 Gd5 1_555 1_555
H2_4 O11_4 1_555 1_555
H3_4 O11_4 1_555 1_555
N1_4 O8_4 1_555 1_555
C1_4 P1_4 1_555 1_555
C2_4 C1_4 1_555 1_555
C8_4 P1_4 1_555 1_555
C9_4 C8_4 1_555 1_555
H8_4 C9_4 1_555 1_555
C15_4 P1_4 1_555 1_555
C16_4 C15_4 1_555 1_555
H12_4 C16_4 1_555 1_555
C17_4 C16_4 1_555 1_555
H13_4 C17_4 1_555 1_555
C18_4 C17_4 1_555 1_555
C19_4 C18_4 1_555 1_555
H14_4 C19_4 1_555 1_555
C20_4 C15_4 1_555 1_555
H15_4 C20_4 1_555 1_555
C21_4 C18_4 1_555 1_555
O13_2 Gd5 1_555 1_555
O9_4 N1_4 1_555 1_555
C19_4 C20_4 1_555 1_555
O4_4 H1_4 1_555 1_555
O5_4 C14_4 1_555 1_555
H9_4 C10_4 1_555 1_555
C11_4 C10_4 1_555 1_555
C12_4 C11_4 1_555 1_555
H10_4 C12_4 1_555 1_555
H11_4 C13_4 1_555 1_555
C14_4 O4_4 1_555 1_555
C11_4 C14_4 1_555 1_555
C12_4 C13_4 1_555 1_555
O13_2 C7_4 1_555 1_555
C5_4 C4_4 1_555 1_555
H6_4 C5_4 1_555 1_555
H7_4 C6_4 1_555 1_555
C7_4 C4_4 1_555 1_555
C5_4 C6_4 1_555 1_555
H5_4 C3_4 1_555 1_555

#END
