
###############################################################################
#
# This file contains modified crystal structure data generated from the
# MOF subset of the Cambridge Structural Database (CSD) v543 
# hosted by the Cambridge Crystallographic Data Centre (CCDC).
#
# This work is licensed under the Creative Commons
# Attribution-NonCommercial-ShareAlike 4.0 International License.
# To view a copy of this license, visit
# http://creativecommons.org/licenses/by-nc-sa/4.0/
# or send a letter to
# Creative Commons, PO Box 1866, Mountain View, CA 94042, USA.
#
# CIF created using the CSD Python API on 29 September 2022
# The structure has been converted into the P1 space group
# The structure has a 3D framework
# The original CSD entry ZIGQOY is in the monoclinic crystal system
# The framework has been calculated to contain at least 10.0% void space
# The void calculation uses a probe of radius 1.32A, grid spacing 0.4
#
###############################################################################

data_ZIGQOY
_chemical_formula_moiety         '(C84 H60 N4 O44 P4 Tb4)n'
_symmetry_cell_setting           triclinic
_symmetry_space_group_name_H-M   'P 1'
_symmetry_Int_Tables_number      1
_space_group_name_Hall           'P 1'
loop_
_symmetry_equiv_pos_site_id
_symmetry_equiv_pos_as_xyz
1 x,y,z
_cell_length_a                   11.5930(12)
_cell_length_b                   17.5378(18)
_cell_length_c                   14.9774(16)
_cell_angle_alpha                90
_cell_angle_beta                 91.2810(10)
_cell_angle_gamma                90
_cell_volume                     3044.38
loop_
_atom_site_label
_atom_site_type_symbol
_atom_site_fract_x
_atom_site_fract_y
_atom_site_fract_z
O9 O 0.0185(4) 0.30413(19) 0.3661(2)
O10 O 0.0802(4) 0.2783(2) 0.2328(2)
N1 N 0.0224(3) 0.3174(2) 0.2840(2)
O13 O 0.1110(2) 0.45986(17) 0.37747(17)
O14 O 0.0175(2) 0.40724(17) 0.53933(17)
Tb1 Tb 0.91997(2) 0.42852(2) 0.40738(2)
P1 P 0.66361(7) 0.42159(5) 0.24922(6)
O1 O 0.7508(2) 0.42165(13) 0.32393(17)
O2 O 0.2050(2) 0.51459(16) 0.49264(16)
O6 O 0.5175(2) 0.09276(17) 0.03933(17)
O7 O 0.5995(2) 0.04771(16) 0.16308(19)
O8 O 0.9692(2) 0.37402(18) 0.25535(18)
O11 O 0.8092(3) 0.32325(17) 0.4691(2)
H2 H 0.8494 0.3013 0.5098
H3 H 0.7931 0.2912 0.4278
C1 C 0.5232(3) 0.4439(2) 0.2912(2)
C2 C 0.5167(3) 0.4938(2) 0.3619(3)
H4 H 0.5829 0.5183 0.3831
C3 C 0.4117(3) 0.5077(3) 0.4018(3)
H5 H 0.4080 0.5414 0.4496
C4 C 0.3131(3) 0.4719(2) 0.3707(2)
C5 C 0.3189(3) 0.4244(3) 0.2974(3)
H6 H 0.2517 0.4022 0.2742
C6 C 0.4232(3) 0.4094(3) 0.2580(3)
H7 H 0.4265 0.3764 0.2095
C7 C 0.2003(3) 0.4828(2) 0.4173(2)
C8 C 0.6956(3) 0.4880(2) 0.1613(2)
C9 C 0.6170(4) 0.5416(3) 0.1310(3)
H8 H 0.5446 0.5444 0.1563
C10 C 0.6454(4) 0.5912(3) 0.0633(4)
H9 H 0.5920 0.6275 0.0438
C11 C 0.7516(4) 0.5877(2) 0.0244(3)
C12 C 0.8304(4) 0.5344(3) 0.0555(3)
H10 H 0.9026 0.5316 0.0298
C13 C 0.8039(4) 0.4855(3) 0.1239(3)
H11 H 0.8587 0.4508 0.1450
C15 C 0.6506(3) 0.32816(19) 0.2005(2)
C16 C 0.6734(3) 0.2660(2) 0.2556(2)
H12 H 0.7055 0.2736 0.3124
C17 C 0.6487(3) 0.1931(2) 0.2263(2)
H13 H 0.6644 0.1516 0.2633
C18 C 0.6004(3) 0.1816(2) 0.1420(2)
C19 C 0.5815(3) 0.2428(2) 0.0856(2)
H14 H 0.5518 0.2348 0.0281
C20 C 0.6068(3) 0.3164(2) 0.1144(2)
H15 H 0.5945 0.3577 0.0763
C21 C 0.5703(3) 0.1020(2) 0.1126(2)
Tb4 Tb 0.08003(2) 0.57148(2) 0.59262(2)
O12 O 0.7950(2) 0.48541(16) 0.50736(16)
O15 O 0.9005(2) 0.54771(16) 0.33692(19)
O4 O 0.8794(3) 0.6287(2) 0.9153(2)
H1 H 0.8885 0.6571 0.8725
O5 O 0.7101(3) 0.68896(19) 0.9217(2)
C14 C 0.7761(4) 0.6407(2) 0.9488(3)
Tb5 Tb 0.41997(2) 0.07148(2) 0.90738(2)
Tb3 Tb 0.58003(2) 0.92852(2) 0.09262(2)
O2_2 O 0.2950(2) 0.01459(16) 0.00736(16)
C3_2 C 0.0883(3) 0.0077(3) 0.0982(3)
H5_2 H 0.0920 0.0414 0.0504
O3 O 0.3890(2) 0.95986(17) 0.12253(17)
C4_2 C 0.1869(3) 0.9719(2) 0.1293(2)
C5_2 C 0.1811(3) 0.9244(3) 0.2026(3)
H6_2 H 0.2483 0.9022 0.2258
C6_2 C 0.0768(3) 0.9094(3) 0.2420(3)
H7_2 H 0.0735 0.8764 0.2905
C7_2 C 0.2997(3) 0.9828(2) 0.0827(2)
O4_2 O 0.6206(3) 0.1287(2) 0.5847(2)
H1_2 H 0.6115 0.1571 0.6275
O5_2 O 0.7899(3) 0.18896(19) 0.5783(2)
H4_2 H 0.9171 0.0183 0.1169
C9_2 C 0.8830(4) 0.0416(3) 0.3690(3)
H8_2 H 0.9554 0.0444 0.3437
C10_2 C 0.8546(4) 0.0912(3) 0.4367(4)
H9_2 H 0.9080 0.1275 0.4562
C11_2 C 0.7484(4) 0.0877(2) 0.4756(3)
C12_2 C 0.6696(4) 0.0344(3) 0.4445(3)
H10_2 H 0.5974 0.0316 0.4702
C14_2 C 0.7239(4) 0.1407(2) 0.5512(3)
P1_2 P 0.83639(7) 0.92159(5) 0.25078(6)
O1_2 O 0.7492(2) 0.92165(13) 0.17607(17)
O6_2 O 0.9825(2) 0.59276(17) 0.46067(17)
O8_2 O 0.5308(2) 0.87402(18) 0.24465(18)
O9_2 O 0.4815(4) 0.80413(19) 0.1339(2)
O10_2 O 0.4198(4) 0.7783(2) 0.2672(2)
O11_2 O 0.6908(3) 0.82325(17) 0.0309(2)
H3_2 H 0.7069 0.7912 0.0722
N1_2 N 0.4776(3) 0.8174(2) 0.2160(2)
C1_2 C 0.9768(3) 0.9439(2) 0.2088(2)
C2_2 C 0.9833(3) 0.9938(2) 0.1381(3)
C8_2 C 0.8044(3) 0.9880(2) 0.3387(2)
C13_2 C 0.6961(4) 0.9855(3) 0.3761(3)
H11_2 H 0.6413 0.9508 0.3550
C15_2 C 0.8494(3) 0.82816(19) 0.2995(2)
C16_2 C 0.8266(3) 0.7660(2) 0.2444(2)
H12_2 H 0.7945 0.7736 0.1876
C17_2 C 0.8513(3) 0.6931(2) 0.2737(2)
H13_2 H 0.8356 0.6516 0.2367
C18_2 C 0.8996(3) 0.6816(2) 0.3580(2)
C19_2 C 0.9185(3) 0.7428(2) 0.4144(2)
H14_2 H 0.9482 0.7348 0.4719
C20_2 C 0.8932(3) 0.8164(2) 0.3856(2)
H15_2 H 0.9055 0.8577 0.4237
C21_2 C 0.9297(3) 0.6020(2) 0.3874(2)
H2_2 H 0.6506 0.8013 0.9902
O12_2 O 0.7050(2) 0.98541(16) 0.99264(16)
O14_2 O 0.4825(2) 0.90724(17) 0.96067(17)
O4_3 O 0.1206(3) 0.3713(2) 0.0847(2)
H1_3 H 0.1115 0.3429 0.1275
O5_3 O 0.2899(3) 0.31104(19) 0.0783(2)
C14_3 C 0.2239(4) 0.3593(2) 0.0512(3)
P1_3 P 0.33639(7) 0.57841(5) 0.75078(6)
O1_3 O 0.2492(2) 0.57835(13) 0.67607(17)
O3_2 O 0.8890(2) 0.54014(17) 0.62253(17)
O7_2 O 0.4005(2) 0.95229(16) 0.83692(19)
O8_3 O 0.0308(2) 0.62598(18) 0.74465(18)
O11_3 O 0.1908(3) 0.67675(17) 0.5309(2)
H2_3 H 0.1506 0.6987 0.4902
H3_3 H 0.2069 0.7088 0.5722
C1_3 C 0.4768(3) 0.5561(2) 0.7088(2)
C2_3 C 0.4833(3) 0.5062(2) 0.6381(3)
H4_3 H 0.4171 0.4817 0.6169
C3_3 C 0.5883(3) 0.4923(3) 0.5982(3)
H5_3 H 0.5920 0.4586 0.5504
C4_3 C 0.6869(3) 0.5281(2) 0.6293(2)
C5_3 C 0.6811(3) 0.5756(3) 0.7026(3)
H6_3 H 0.7483 0.5978 0.7258
C6_3 C 0.5768(3) 0.5906(3) 0.7420(3)
H7_3 H 0.5735 0.6236 0.7905
C7_3 C 0.7997(3) 0.5172(2) 0.5827(2)
C8_3 C 0.3044(3) 0.5120(2) 0.8387(2)
C9_3 C 0.3830(4) 0.4584(3) 0.8690(3)
H8_3 H 0.4554 0.4556 0.8437
C10_3 C 0.3546(4) 0.4088(3) 0.9367(4)
H9_3 H 0.4080 0.3725 0.9562
C11_3 C 0.2484(4) 0.4123(2) 0.9756(3)
C12_3 C 0.1696(4) 0.4656(3) 0.9445(3)
H10_3 H 0.0974 0.4684 0.9702
C13_3 C 0.1961(4) 0.5145(3) 0.8761(3)
H11_3 H 0.1413 0.5492 0.8550
C15_3 C 0.3494(3) 0.67184(19) 0.7995(2)
C16_3 C 0.3266(3) 0.7340(2) 0.7444(2)
H12_3 H 0.2945 0.7264 0.6876
C17_3 C 0.3513(3) 0.8069(2) 0.7737(2)
H13_3 H 0.3356 0.8484 0.7367
C18_3 C 0.3996(3) 0.8184(2) 0.8580(2)
C19_3 C 0.4185(3) 0.7572(2) 0.9144(2)
H14_3 H 0.4482 0.7652 0.9719
C20_3 C 0.3932(3) 0.6836(2) 0.8856(2)
H15_3 H 0.4055 0.6423 0.9237
C21_3 C 0.4297(3) 0.8980(2) 0.8874(2)
O15_2 O 0.0995(2) 0.45229(16) 0.66308(19)
O9_3 O 0.9815(4) 0.69587(19) 0.6339(2)
O10_3 O 0.9198(4) 0.7217(2) 0.7672(2)
N1_3 N 0.9776(3) 0.6826(2) 0.7160(2)
H2_4 H 0.3494 0.1987 0.0098
P1_4 P 0.16361(7) 0.07841(5) 0.74922(6)
O1_4 O 0.2508(2) 0.07835(13) 0.82393(17)
O8_4 O 0.4692(2) 0.12598(18) 0.75535(18)
O9_4 O 0.5185(4) 0.19587(19) 0.8661(2)
O10_4 O 0.5802(4) 0.2217(2) 0.7328(2)
O11_4 O 0.3092(3) 0.17675(17) 0.9691(2)
H3_4 H 0.2931 0.2088 0.9278
N1_4 N 0.5224(3) 0.1826(2) 0.7840(2)
C1_4 C 0.0232(3) 0.0561(2) 0.7912(2)
C2_4 C 0.0167(3) 0.0062(2) 0.8619(3)
C8_4 C 0.1956(3) 0.0120(2) 0.6613(2)
C13_4 C 0.3039(4) 0.0145(3) 0.6239(3)
H11_4 H 0.3587 0.0492 0.6450
C15_4 C 0.1506(3) 0.17184(19) 0.7005(2)
C16_4 C 0.1734(3) 0.2340(2) 0.7556(2)
H12_4 H 0.2055 0.2264 0.8124
C17_4 C 0.1487(3) 0.3069(2) 0.7263(2)
H13_4 H 0.1644 0.3484 0.7633
C18_4 C 0.1004(3) 0.3184(2) 0.6420(2)
C19_4 C 0.0815(3) 0.2572(2) 0.5856(2)
H14_4 H 0.0518 0.2652 0.5281
C20_4 C 0.1068(3) 0.1836(2) 0.6144(2)
H15_4 H 0.0945 0.1423 0.5763
C21_4 C 0.0703(3) 0.3980(2) 0.6126(2)
O13_2 O 0.6110(2) 0.04014(17) 0.87747(17)
O4_4 O 0.3794(3) 0.8713(2) 0.4153(2)
H1_4 H 0.3885 0.8429 0.3725
O5_4 O 0.2101(3) 0.81104(19) 0.4217(2)
H4_4 H 0.0829 0.9817 0.8831
C9_4 C 0.1170(4) 0.9584(3) 0.6310(3)
H8_4 H 0.0446 0.9556 0.6563
C10_4 C 0.1454(4) 0.9088(3) 0.5633(4)
H9_4 H 0.0920 0.8725 0.5438
C11_4 C 0.2516(4) 0.9123(2) 0.5244(3)
C12_4 C 0.3304(4) 0.9656(3) 0.5555(3)
H10_4 H 0.4026 0.9684 0.5298
C14_4 C 0.2761(4) 0.8593(2) 0.4488(3)
C4_4 C 0.8131(3) 0.0281(2) 0.8707(2)
C5_4 C 0.8189(3) 0.0756(3) 0.7974(3)
H6_4 H 0.7517 0.0978 0.7742
C6_4 C 0.9232(3) 0.0906(3) 0.7580(3)
H7_4 H 0.9265 0.1236 0.7095
C7_4 C 0.7003(3) 0.0172(2) 0.9173(2)
C3_4 C 0.9117(3) 0.9923(3) 0.9018(3)
H5_4 H 0.9080 0.9586 0.9496
loop_
_geom_bond_atom_site_label_1
_geom_bond_atom_site_label_2
_geom_bond_site_symmetry_1
_geom_bond_site_symmetry_2
O10 N1 1_555 1_555
O9 N1 1_555 1_555
Tb1 O1 1_555 1_555
P1 O1 1_555 1_555
O2 C7 1_555 1_555
O13 C7 1_555 1_555
O6 C21 1_555 1_555
O7 C21 1_555 1_555
O8 Tb1 1_555 1_555
O11 Tb1 1_555 1_555
H2 O11 1_555 1_555
H3 O11 1_555 1_555
C1 P1 1_555 1_555
C2 C1 1_555 1_555
H4 C2 1_555 1_555
C3 C2 1_555 1_555
H5 C3 1_555 1_555
C4 C3 1_555 1_555
C5 C4 1_555 1_555
H6 C5 1_555 1_555
C6 C1 1_555 1_555
H7 C6 1_555 1_555
C7 C4 1_555 1_555
C8 P1 1_555 1_555
C9 C8 1_555 1_555
H8 C9 1_555 1_555
C10 C9 1_555 1_555
H9 C10 1_555 1_555
C11 C10 1_555 1_555
C12 C11 1_555 1_555
H10 C12 1_555 1_555
C13 C8 1_555 1_555
H11 C13 1_555 1_555
C15 P1 1_555 1_555
C16 C15 1_555 1_555
H12 C16 1_555 1_555
C17 C16 1_555 1_555
H13 C17 1_555 1_555
C18 C17 1_555 1_555
C19 C18 1_555 1_555
H14 C19 1_555 1_555
C20 C15 1_555 1_555
H15 C20 1_555 1_555
C21 C18 1_555 1_555
Tb4 O2 1_555 1_555
O12 Tb1 1_555 1_555
O15 Tb1 1_555 1_555
C5 C6 1_555 1_555
C12 C13 1_555 1_555
C19 C20 1_555 1_555
O4 H1 1_555 1_555
O5 C14 1_555 1_555
C14 O4 1_555 1_555
H5_2 C3_2 1_555 1_555
O3 C7_2 1_555 1_555
C5_2 C4_2 1_555 1_555
H6_2 C5_2 1_555 1_555
H7_2 C6_2 1_555 1_555
C7_2 C4_2 1_555 1_555
Tb3 O3 1_555 1_555
C5_2 C6_2 1_555 1_555
O4_2 H1_2 1_555 1_555
O5_2 C14_2 1_555 1_555
H8_2 C9_2 1_555 1_555
C10_2 C9_2 1_555 1_555
H9_2 C10_2 1_555 1_555
C11_2 C10_2 1_555 1_555
C12_2 C11_2 1_555 1_555
H10_2 C12_2 1_555 1_555
C14_2 O4_2 1_555 1_555
C11_2 C14_2 1_555 1_555
Tb3 O1_2 1_555 1_555
P1_2 O1_2 1_555 1_555
O6_2 C21_2 1_555 1_555
O15 C21_2 1_555 1_555
O8_2 Tb3 1_555 1_555
O9_2 Tb3 1_555 1_555
O10_2 N1_2 1_555 1_555
O11_2 Tb3 1_555 1_555
H3_2 O11_2 1_555 1_555
N1_2 O8_2 1_555 1_555
C1_2 P1_2 1_555 1_555
C2_2 C1_2 1_555 1_555
C8_2 P1_2 1_555 1_555
C13_2 C8_2 1_555 1_555
H11_2 C13_2 1_555 1_555
C15_2 P1_2 1_555 1_555
C16_2 C15_2 1_555 1_555
H12_2 C16_2 1_555 1_555
C17_2 C16_2 1_555 1_555
H13_2 C17_2 1_555 1_555
C18_2 C17_2 1_555 1_555
C19_2 C18_2 1_555 1_555
H14_2 C19_2 1_555 1_555
C20_2 C15_2 1_555 1_555
H15_2 C20_2 1_555 1_555
C21_2 C18_2 1_555 1_555
O9_2 N1_2 1_555 1_555
C19_2 C20_2 1_555 1_555
O4_3 H1_3 1_555 1_555
O5_3 C14_3 1_555 1_555
C14_3 O4_3 1_555 1_555
Tb4 O1_3 1_555 1_555
P1_3 O1_3 1_555 1_555
O12 C7_3 1_555 1_555
O3_2 C7_3 1_555 1_555
O14_2 C21_3 1_555 1_555
O7_2 C21_3 1_555 1_555
O8_3 Tb4 1_555 1_555
O11_3 Tb4 1_555 1_555
H2_3 O11_3 1_555 1_555
H3_3 O11_3 1_555 1_555
C1_3 P1_3 1_555 1_555
C2_3 C1_3 1_555 1_555
H4_3 C2_3 1_555 1_555
C3_3 C2_3 1_555 1_555
H5_3 C3_3 1_555 1_555
C4_3 C3_3 1_555 1_555
C5_3 C4_3 1_555 1_555
H6_3 C5_3 1_555 1_555
C6_3 C1_3 1_555 1_555
H7_3 C6_3 1_555 1_555
C7_3 C4_3 1_555 1_555
C8_3 P1_3 1_555 1_555
C9_3 C8_3 1_555 1_555
H8_3 C9_3 1_555 1_555
C10_3 C9_3 1_555 1_555
H9_3 C10_3 1_555 1_555
C11_3 C10_3 1_555 1_555
C12_3 C11_3 1_555 1_555
H10_3 C12_3 1_555 1_555
C13_3 C8_3 1_555 1_555
H11_3 C13_3 1_555 1_555
C15_3 P1_3 1_555 1_555
C16_3 C15_3 1_555 1_555
H12_3 C16_3 1_555 1_555
C17_3 C16_3 1_555 1_555
H13_3 C17_3 1_555 1_555
C18_3 C17_3 1_555 1_555
C19_3 C18_3 1_555 1_555
H14_3 C19_3 1_555 1_555
C20_3 C15_3 1_555 1_555
H15_3 C20_3 1_555 1_555
C21_3 C18_3 1_555 1_555
O15_2 Tb4 1_555 1_555
C5_3 C6_3 1_555 1_555
C12_3 C13_3 1_555 1_555
C19_3 C20_3 1_555 1_555
O10_3 N1_3 1_555 1_555
O9_3 N1_3 1_555 1_555
Tb5 O1_4 1_555 1_555
P1_4 O1_4 1_555 1_555
O14 C21_4 1_555 1_555
O15_2 C21_4 1_555 1_555
O8_4 Tb5 1_555 1_555
O9_4 Tb5 1_555 1_555
O10_4 N1_4 1_555 1_555
O11_4 Tb5 1_555 1_555
H3_4 O11_4 1_555 1_555
N1_4 O8_4 1_555 1_555
C1_4 P1_4 1_555 1_555
C2_4 C1_4 1_555 1_555
C8_4 P1_4 1_555 1_555
C13_4 C8_4 1_555 1_555
H11_4 C13_4 1_555 1_555
C15_4 P1_4 1_555 1_555
C16_4 C15_4 1_555 1_555
H12_4 C16_4 1_555 1_555
C17_4 C16_4 1_555 1_555
H13_4 C17_4 1_555 1_555
C18_4 C17_4 1_555 1_555
C19_4 C18_4 1_555 1_555
H14_4 C19_4 1_555 1_555
C20_4 C15_4 1_555 1_555
H15_4 C20_4 1_555 1_555
C21_4 C18_4 1_555 1_555
O13_2 Tb5 1_555 1_555
O9_4 N1_4 1_555 1_555
C19_4 C20_4 1_555 1_555
O4_4 H1_4 1_555 1_555
O5_4 C14_4 1_555 1_555
H8_4 C9_4 1_555 1_555
C10_4 C9_4 1_555 1_555
H9_4 C10_4 1_555 1_555
C11_4 C10_4 1_555 1_555
C12_4 C11_4 1_555 1_555
H10_4 C12_4 1_555 1_555
C14_4 O4_4 1_555 1_555
C11_4 C14_4 1_555 1_555
O13_2 C7_4 1_555 1_555
C5_4 C4_4 1_555 1_555
H6_4 C5_4 1_555 1_555
H7_4 C6_4 1_555 1_555
C7_4 C4_4 1_555 1_555
C5_4 C6_4 1_555 1_555
H5_4 C3_4 1_555 1_555

#END
