
###############################################################################
#
# This file contains modified crystal structure data generated from the
# MOF subset of the Cambridge Structural Database (CSD) v543 
# hosted by the Cambridge Crystallographic Data Centre (CCDC).
#
# This work is licensed under the Creative Commons
# Attribution-NonCommercial-ShareAlike 4.0 International License.
# To view a copy of this license, visit
# http://creativecommons.org/licenses/by-nc-sa/4.0/
# or send a letter to
# Creative Commons, PO Box 1866, Mountain View, CA 94042, USA.
#
# CIF created using the CSD Python API on 29 September 2022
# The structure has been converted into the P1 space group
# The structure has a 3D framework
# The original CSD entry ZIGQEO is in the triclinic crystal system
# The framework has been calculated to contain at least 10.0% void space
# The void calculation uses a probe of radius 1.32A, grid spacing 0.4
#
###############################################################################

data_ZIGQEO
_chemical_formula_moiety         '(C48 H38 Eu2 N2 O16 P2)n'
_symmetry_cell_setting           triclinic
_symmetry_space_group_name_H-M   'P 1'
_symmetry_Int_Tables_number      1
_space_group_name_Hall           'P 1'
loop_
_symmetry_equiv_pos_site_id
_symmetry_equiv_pos_as_xyz
1 x,y,z
_cell_length_a                   10.873(9)
_cell_length_b                   11.867(10)
_cell_length_c                   14.461(11)
_cell_angle_alpha                74.805(10)
_cell_angle_beta                 74.205(9)
_cell_angle_gamma                65.020(9)
_cell_volume                     1604.16
loop_
_atom_site_label
_atom_site_type_symbol
_atom_site_fract_x
_atom_site_fract_y
_atom_site_fract_z
Eu1 Eu 0.00378(3) 0.44832(3) 0.37164(2)
O8 O 0.1886(6) 0.2331(5) 0.3668(5)
C2 C 0.0026(8) 0.0542(7) 0.3589(5)
H1 H 0.0378 0.0998 0.3805
H5 H 0.0352 0.1854 0.1069
C22 C 0.2860(14) 0.1787(12) 0.3133(12)
H13 H 0.3024 0.2201 0.2498
N1 N 0.3698(19) 0.0681(13) 0.336(2)
H14 H 0.2908 0.0522 0.4725
C24 C 0.499(3) 0.014(3) 0.267(2)
H17 H 0.5745 0.0184 0.2864
H18 H 0.4905 0.0606 0.2025
O10 O 0.0112(6) 0.6524(5) 0.3515(3)
O11 O 0.1544(5) 0.4548(5) 0.2099(3)
O13 O 0.1648(5) 0.4237(5) 0.4626(4)
O5 O 0.0644(5) 0.4234(5) 0.7878(3)
C10 C 0.0055(9) 0.3060(8) 0.9816(5)
H6 H 0.0851 0.2589 0.9431
O2 O 0.0597(5) 0.6817(5) 0.4825(3)
C3 C 0.0412(8) 0.9254(7) 0.3919(5)
H2 H 0.1007 0.8853 0.4364
C7 C 0.0243(7) 0.7175(6) 0.4004(5)
C23 C 0.3570(19) 0.9982(18) 0.4278(18)
H15 H 0.4448 0.9599 0.4482
H16 H 0.3264 0.9336 0.4268
H19 H 0.5166 0.9273 0.2678
P1 P 0.84651(18) 0.28459(17) 0.26947(11)
O1 O 0.9218(5) 0.3314(4) 0.3127(3)
O7 O 0.2419(5) 0.4362(5) 0.5836(3)
C1 C 0.9122(7) 0.1153(7) 0.2940(5)
C6 C 0.8637(8) 0.0459(7) 0.2582(5)
H4 H 0.8031 0.0862 0.2144
C8 C 0.8624(7) 0.3348(6) 0.1404(5)
C9 C 0.9767(9) 0.2636(9) 0.0801(6)
C13 C 0.7743(8) 0.4496(8) 0.0982(5)
H8 H 0.6976 0.4990 0.1374
C15 C 0.6700(7) 0.3292(6) 0.3286(4)
C16 C 0.6442(7) 0.3389(7) 0.4269(5)
H9 H 0.7159 0.3287 0.4556
C17 C 0.5119(7) 0.3638(7) 0.4819(5)
H10 H 0.4960 0.3676 0.5477
C18 C 0.4035(7) 0.3829(6) 0.4391(5)
C19 C 0.4288(7) 0.3738(8) 0.3419(5)
H11 H 0.3561 0.3868 0.3130
C20 C 0.5618(7) 0.3454(8) 0.2863(5)
H12 H 0.5779 0.3374 0.2214
C21 C 0.2602(7) 0.4149(7) 0.4998(5)
O9 O 0.9403(5) 0.3183(5) 0.5175(3)
O12 O 0.9356(5) 0.5766(5) 0.2122(3)
O14 O 0.7581(5) 0.5638(5) 0.4164(3)
O4 O 0.8456(5) 0.5452(5) 0.7901(3)
C11 C 0.9135(7) 0.4211(7) 0.9398(5)
C12 C 0.7989(8) 0.4922(9) 0.9981(5)
H7 H 0.7379 0.5687 0.9708
C14 C 0.9441(7) 0.4641(7) 0.8324(5)
Eu6 Eu 0.99622(3) 0.55168(3) 0.62836(2)
C4 C 0.9913(7) 0.8566(7) 0.3586(5)
C5 C 0.9069(8) 0.9177(7) 0.2884(5)
H3 H 0.8795 0.8706 0.2617
C4_2 C 0.0087(7) 0.1434(7) 0.6414(5)
C5_2 C 0.0931(8) 0.0823(7) 0.7116(5)
H3_2 H 0.1205 0.1294 0.7383
C11_2 C 0.0865(7) 0.5789(7) 0.0602(5)
C12_2 C 0.2011(8) 0.5078(9) 0.0019(5)
H7_2 H 0.2621 0.4313 0.0292
C14_2 C 0.0559(7) 0.5359(7) 0.1676(5)
P1_2 P 0.15349(18) 0.71541(17) 0.73053(11)
O1_2 O 0.0782(5) 0.6686(4) 0.6873(3)
O6 O 0.8352(5) 0.5763(5) 0.5374(4)
C1_2 C 0.0878(7) 0.8847(7) 0.7060(5)
C6_2 C 0.1363(8) 0.9541(7) 0.7418(5)
H4_2 H 0.1969 0.9138 0.7856
C8_2 C 0.1376(7) 0.6652(6) 0.8596(5)
C9_2 C 0.0233(9) 0.7364(9) 0.9199(6)
C13_2 C 0.2257(8) 0.5504(8) 0.9018(5)
H8_2 H 0.3024 0.5010 0.8626
C15_2 C 0.3300(7) 0.6708(6) 0.6714(4)
C16_2 C 0.3558(7) 0.6611(7) 0.5731(5)
H9_2 H 0.2841 0.6713 0.5444
C17_2 C 0.4881(7) 0.6362(7) 0.5181(5)
H10_2 H 0.5040 0.6324 0.4523
C18_2 C 0.5965(7) 0.6171(6) 0.5609(5)
C19_2 C 0.5712(7) 0.6262(8) 0.6581(5)
H11_2 H 0.6439 0.6132 0.6870
C20_2 C 0.4382(7) 0.6546(8) 0.7137(5)
H12_2 H 0.4221 0.6626 0.7786
C21_2 C 0.7398(7) 0.5851(7) 0.5002(5)
O3 O 0.9888(6) 0.3476(5) 0.6485(3)
C3_2 C 0.9588(8) 0.0746(7) 0.6081(5)
H2_2 H 0.8993 0.1147 0.5636
C7_2 C 0.9757(7) 0.2825(6) 0.5996(5)
C23_2 C 0.6430(19) 0.0018(18) 0.5722(18)
H15_2 H 0.5552 0.0401 0.5518
H16_2 H 0.6736 0.0664 0.5732
H19_2 H 0.4834 0.0727 0.7322
C10_2 C 0.9945(9) 0.6940(8) 0.0184(5)
H6_2 H 0.9149 0.7411 0.0569
O8_2 O 0.8114(6) 0.7669(5) 0.6332(5)
C2_2 C 0.9974(8) 0.9458(7) 0.6411(5)
H1_2 H 0.9622 0.9002 0.6195
H5_2 H 0.9648 0.8146 0.8931
C22_2 C 0.7140(14) 0.8213(12) 0.6867(12)
H13_2 H 0.6976 0.7799 0.7502
N1_2 N 0.6302(19) 0.9319(13) 0.664(2)
H14_2 H 0.7092 0.9478 0.5275
C24_2 C 0.501(3) 0.986(3) 0.733(2)
H17_2 H 0.4255 0.9816 0.7136
H18_2 H 0.5095 0.9394 0.7975
loop_
_geom_bond_atom_site_label_1
_geom_bond_atom_site_label_2
_geom_bond_site_symmetry_1
_geom_bond_site_symmetry_2
O8 Eu1 1_555 1_555
H1 C2 1_555 1_555
C22 O8 1_555 1_555
H13 C22 1_555 1_555
N1 C22 1_555 1_555
C24 N1 1_555 1_555
H17 C24 1_555 1_555
H18 C24 1_555 1_555
O10 Eu1 1_555 1_555
O11 Eu1 1_555 1_555
O13 Eu1 1_555 1_555
H6 C10 1_555 1_555
O2 C7 1_555 1_555
O10 C7 1_555 1_555
H2 C3 1_555 1_555
H15 C23 1_555 1_555
H16 C23 1_555 1_555
P1 O1 1_555 1_555
O13 C21 1_555 1_555
O7 C21 1_555 1_555
C1 P1 1_555 1_555
C6 C1 1_555 1_555
H4 C6 1_555 1_555
C8 P1 1_555 1_555
C9 C8 1_555 1_555
C13 C8 1_555 1_555
H8 C13 1_555 1_555
C15 P1 1_555 1_555
C16 C15 1_555 1_555
H9 C16 1_555 1_555
C17 C16 1_555 1_555
H10 C17 1_555 1_555
C18 C17 1_555 1_555
C19 C18 1_555 1_555
H11 C19 1_555 1_555
C20 C15 1_555 1_555
H12 C20 1_555 1_555
C21 C18 1_555 1_555
C19 C20 1_555 1_555
O4 C14 1_555 1_555
C12 C11 1_555 1_555
H7 C12 1_555 1_555
C14 C11 1_555 1_555
Eu6 O4 1_555 1_555
C5 C4 1_555 1_555
H3 C5 1_555 1_555
C5_2 C4_2 1_555 1_555
H3_2 C5_2 1_555 1_555
O11 C14_2 1_555 1_555
C12_2 C11_2 1_555 1_555
H7_2 C12_2 1_555 1_555
C14_2 C11_2 1_555 1_555
P1_2 O1_2 1_555 1_555
O6 C21_2 1_555 1_555
O14 C21_2 1_555 1_555
C1_2 P1_2 1_555 1_555
C6_2 C1_2 1_555 1_555
H4_2 C6_2 1_555 1_555
C8_2 P1_2 1_555 1_555
C9_2 C8_2 1_555 1_555
C13_2 C8_2 1_555 1_555
H8_2 C13_2 1_555 1_555
C15_2 P1_2 1_555 1_555
C16_2 C15_2 1_555 1_555
H9_2 C16_2 1_555 1_555
C17_2 C16_2 1_555 1_555
H10_2 C17_2 1_555 1_555
C18_2 C17_2 1_555 1_555
C19_2 C18_2 1_555 1_555
H11_2 C19_2 1_555 1_555
C20_2 C15_2 1_555 1_555
H12_2 C20_2 1_555 1_555
C21_2 C18_2 1_555 1_555
Eu6 O6 1_555 1_555
C19_2 C20_2 1_555 1_555
O9 C7_2 1_555 1_555
O3 C7_2 1_555 1_555
H2_2 C3_2 1_555 1_555
H15_2 C23_2 1_555 1_555
H16_2 C23_2 1_555 1_555
Eu6 O3 1_555 1_555
H6_2 C10_2 1_555 1_555
O8_2 Eu6 1_555 1_555
H1_2 C2_2 1_555 1_555
C22_2 O8_2 1_555 1_555
H13_2 C22_2 1_555 1_555
N1_2 C22_2 1_555 1_555
C24_2 N1_2 1_555 1_555
H17_2 C24_2 1_555 1_555
H18_2 C24_2 1_555 1_555

#END
