
###############################################################################
#
# This file contains modified crystal structure data generated from the
# MOF subset of the Cambridge Structural Database (CSD) v543 
# hosted by the Cambridge Crystallographic Data Centre (CCDC).
#
# This work is licensed under the Creative Commons
# Attribution-NonCommercial-ShareAlike 4.0 International License.
# To view a copy of this license, visit
# http://creativecommons.org/licenses/by-nc-sa/4.0/
# or send a letter to
# Creative Commons, PO Box 1866, Mountain View, CA 94042, USA.
#
# CIF created using the CSD Python API on 29 September 2022
# The structure has been converted into the P1 space group
# The structure has a 3D framework
# The original CSD entry ZIGQAK is in the triclinic crystal system
# The framework has been calculated to contain at least 10.0% void space
# The void calculation uses a probe of radius 1.32A, grid spacing 0.4
# H atom positions have been added when not included in the experimental data
#
###############################################################################

data_ZIGQAK
_chemical_formula_moiety         '(C50 H42 Eu2 N2 O16 P2)n'
_symmetry_cell_setting           triclinic
_symmetry_space_group_name_H-M   'P 1'
_symmetry_Int_Tables_number      1
_space_group_name_Hall           'P 1'
loop_
_symmetry_equiv_pos_site_id
_symmetry_equiv_pos_as_xyz
1 x,y,z
_cell_length_a                   10.9569(9)
_cell_length_b                   11.8031(10)
_cell_length_c                   14.4586(12)
_cell_angle_alpha                74.9130(10)
_cell_angle_beta                 73.2880(10)
_cell_angle_gamma                68.0560(10)
_cell_volume                     1636.37
loop_
_atom_site_label
_atom_site_type_symbol
_atom_site_fract_x
_atom_site_fract_y
_atom_site_fract_z
Eu1 Eu 0.00351(2) 0.44564(2) 0.37040(2)
O8 O 0.1799(2) 0.2413(2) 0.35558(19)
N1 N 0.3503(5) 0.0664(4) 0.3621(4)
H4 H 0.0289 0.1044 0.3804
H5 H 0.0244 0.1812 0.1080
C22 C 0.3006(7) 0.1774(6) 0.2018(4)
H13 H 0.2182 0.2239 0.1799
H14 H 0.3349 0.0966 0.1840
H15 H 0.3655 0.2199 0.1716
C23 C 0.2732(4) 0.1639(4) 0.3168(4)
C24 C 0.3221(6) 0.0549(7) 0.4691(4)
H16 H 0.2917 0.1358 0.4862
H17 H 0.4026 0.0049 0.4926
H18 H 0.2534 0.0166 0.4983
O9 O 0.0085(2) 0.65105(18) 0.35244(15)
O11 O 0.1484(2) 0.4678(2) 0.20626(16)
O13 O 0.1636(2) 0.42716(19) 0.45502(17)
H19 H 0.540773 0.0191751 0.263121
O5 O 0.0658(2) 0.4265(2) 0.78719(15)
H6 H 0.0732 0.2548 0.9422
O3 O 0.0598(2) 0.68366(18) 0.48045(14)
C5 C 0.0369(3) 0.9284(3) 0.3898(2)
H3 H 0.0972 0.8921 0.4314
C7 C 0.0228(3) 0.7174(3) 0.4005(2)
C25 C 0.4694(9) 0.9734(9) 0.3103(8)
H20 H 0.518036 0.8999 0.36423
H21 H 0.435589 0.933817 0.266059
P1 P 0.84112(7) 0.27727(6) 0.27372(5)
O1 O 0.9124(2) 0.32931(17) 0.31693(14)
O7 O 0.2336(2) 0.44493(19) 0.57776(16)
C1 C 0.9050(3) 0.1101(2) 0.29832(19)
C2 C 0.8598(3) 0.0365(3) 0.2645(2)
H1 H 0.8003 0.0730 0.2223
C6 C 0.9957(3) 0.0556(3) 0.3596(2)
C8 C 0.8615(3) 0.3264(3) 0.1439(2)
C9 C 0.9698(4) 0.2579(3) 0.0821(2)
C12 C 0.8089(4) 0.4824(3) 0.0038(2)
C13 C 0.7831(4) 0.4405(3) 0.1037(2)
H8 H 0.7122 0.4897 0.1444
C15 C 0.6654(3) 0.3186(2) 0.3327(2)
C16 C 0.5617(3) 0.3310(3) 0.2893(2)
H9 H 0.5815 0.3182 0.2251
C17 C 0.4305(3) 0.3622(3) 0.3409(2)
H10 H 0.3619 0.3717 0.3109
C18 C 0.3992(3) 0.3796(3) 0.4378(2)
C19 C 0.5028(3) 0.3636(3) 0.4813(2)
H11 H 0.4838 0.3726 0.5465
C20 C 0.6345(3) 0.3345(3) 0.4289(2)
H12 H 0.7030 0.3256 0.4588
C21 C 0.2561(3) 0.4189(3) 0.4940(2)
O10 O 0.9402(2) 0.31634(18) 0.51955(14)
O12 O 0.9342(2) 0.5735(2) 0.21281(15)
O14 O 0.7664(2) 0.55507(19) 0.42224(16)
O4 O 0.8516(2) 0.5322(2) 0.79374(16)
C10 C 0.9986(4) 0.3012(3) 0.9824(2)
C11 C 0.9165(3) 0.4133(3) 0.9428(2)
H7 H 0.7530 0.5581 0.9775
C14 C 0.9477(3) 0.4595(3) 0.8338(2)
Eu6 Eu 0.99649(2) 0.55436(2) 0.62960(2)
C3 C 0.9030(3) 0.9090(3) 0.2932(2)
H2 H 0.8746 0.8597 0.2688
C4 C 0.9889(3) 0.8547(3) 0.3584(2)
C3_2 C 0.0970(3) 0.0910(3) 0.7068(2)
H2_2 H 0.1254 0.1403 0.7312
C4_2 C 0.0111(3) 0.1453(3) 0.6416(2)
C10_2 C 0.0014(4) 0.6988(3) 0.0176(2)
C11_2 C 0.0835(3) 0.5867(3) 0.0572(2)
H7_2 H 0.2470 0.4419 0.0225
C14_2 C 0.0523(3) 0.5405(3) 0.1662(2)
P1_2 P 0.15888(7) 0.72273(6) 0.72628(5)
O1_2 O 0.0876(2) 0.67069(17) 0.68307(14)
O6 O 0.8364(2) 0.57284(19) 0.54498(17)
C1_2 C 0.0950(3) 0.8899(2) 0.70168(19)
C2_2 C 0.1402(3) 0.9635(3) 0.7355(2)
H1_2 H 0.1997 0.9270 0.7777
C6_2 C 0.0043(3) 0.9444(3) 0.6404(2)
C8_2 C 0.1385(3) 0.6736(3) 0.8561(2)
C9_2 C 0.0302(4) 0.7421(3) 0.9179(2)
C12_2 C 0.1911(4) 0.5176(3) 0.9962(2)
C13_2 C 0.2169(4) 0.5595(3) 0.8963(2)
H8_2 H 0.2878 0.5103 0.8556
C15_2 C 0.3346(3) 0.6814(2) 0.6673(2)
C16_2 C 0.4383(3) 0.6690(3) 0.7107(2)
H9_2 H 0.4185 0.6818 0.7749
C17_2 C 0.5695(3) 0.6378(3) 0.6591(2)
H10_2 H 0.6381 0.6283 0.6891
C18_2 C 0.6008(3) 0.6204(3) 0.5622(2)
C19_2 C 0.4972(3) 0.6364(3) 0.5187(2)
H11_2 H 0.5162 0.6274 0.4535
C20_2 C 0.3655(3) 0.6655(3) 0.5711(2)
H12_2 H 0.2970 0.6744 0.5412
C21_2 C 0.7439(3) 0.5811(3) 0.5060(2)
O2 O 0.9915(2) 0.34895(18) 0.64756(15)
C5_2 C 0.9631(3) 0.0716(3) 0.6102(2)
H3_2 H 0.9028 0.1079 0.5686
C7_2 C 0.9772(3) 0.2826(3) 0.5995(2)
C25_2 C 0.5306(9) 0.0266(9) 0.6897(8)
H20_2 H 0.481964 0.1001 0.63577
H21_2 H 0.564411 0.0661832 0.733941
H6_2 H 0.9268 0.7452 0.0578
O8_2 O 0.8201(2) 0.7587(2) 0.64442(19)
N1_2 N 0.6497(5) 0.9336(4) 0.6379(4)
H4_2 H 0.9711 0.8956 0.6196
H5_2 H 0.9756 0.8188 0.8920
C22_2 C 0.6994(7) 0.8226(6) 0.7982(4)
H13_2 H 0.7818 0.7761 0.8201
H14_2 H 0.6651 0.9034 0.8160
H15_2 H 0.6345 0.7801 0.8284
C23_2 C 0.7268(4) 0.8361(4) 0.6832(4)
C24_2 C 0.6779(6) 0.9451(7) 0.5309(4)
H16_2 H 0.7083 0.8642 0.5138
H17_2 H 0.5974 0.9951 0.5074
H18_2 H 0.7466 0.9834 0.5017
H19_2 H 0.459227 0.980825 0.736879
loop_
_geom_bond_atom_site_label_1
_geom_bond_atom_site_label_2
_geom_bond_site_symmetry_1
_geom_bond_site_symmetry_2
O8 Eu1 1_555 1_555
N1 C23 1_555 1_555
C22 H13 1_555 1_555
H14 C22 1_555 1_555
H15 C22 1_555 1_555
C23 O8 1_555 1_555
C24 N1 1_555 1_555
H16 C24 1_555 1_555
H17 C24 1_555 1_555
H18 C24 1_555 1_555
O9 Eu1 1_555 1_555
O11 Eu1 1_555 1_555
O13 Eu1 1_555 1_555
C22 C23 1_555 1_555
O9 C7 1_555 1_555
O3 C7 1_555 1_555
H3 C5 1_555 1_555
C25 H20 1_555 1_555
C25 H21 1_555 1_555
P1 O1 1_555 1_555
O13 C21 1_555 1_555
O7 C21 1_555 1_555
C1 P1 1_555 1_555
C2 C1 1_555 1_555
H1 C2 1_555 1_555
C6 C1 1_555 1_555
C8 P1 1_555 1_555
C9 C8 1_555 1_555
C13 C8 1_555 1_555
H8 C13 1_555 1_555
C15 P1 1_555 1_555
C16 C15 1_555 1_555
H9 C16 1_555 1_555
C17 C16 1_555 1_555
H10 C17 1_555 1_555
C18 C17 1_555 1_555
C19 C18 1_555 1_555
H11 C19 1_555 1_555
C20 C15 1_555 1_555
H12 C20 1_555 1_555
C21 C18 1_555 1_555
C12 C13 1_555 1_555
C19 C20 1_555 1_555
O4 C14 1_555 1_555
C11 C10 1_555 1_555
C14 C11 1_555 1_555
Eu6 O4 1_555 1_555
H2 C3 1_555 1_555
C4 C3 1_555 1_555
H2_2 C3_2 1_555 1_555
C4_2 C3_2 1_555 1_555
O11 C14_2 1_555 1_555
C11_2 C10_2 1_555 1_555
C14_2 C11_2 1_555 1_555
P1_2 O1_2 1_555 1_555
O6 C21_2 1_555 1_555
O14 C21_2 1_555 1_555
C1_2 P1_2 1_555 1_555
C2_2 C1_2 1_555 1_555
H1_2 C2_2 1_555 1_555
C6_2 C1_2 1_555 1_555
C8_2 P1_2 1_555 1_555
C9_2 C8_2 1_555 1_555
C13_2 C8_2 1_555 1_555
H8_2 C13_2 1_555 1_555
C15_2 P1_2 1_555 1_555
C16_2 C15_2 1_555 1_555
H9_2 C16_2 1_555 1_555
C17_2 C16_2 1_555 1_555
H10_2 C17_2 1_555 1_555
C18_2 C17_2 1_555 1_555
C19_2 C18_2 1_555 1_555
H11_2 C19_2 1_555 1_555
C20_2 C15_2 1_555 1_555
H12_2 C20_2 1_555 1_555
C21_2 C18_2 1_555 1_555
Eu6 O6 1_555 1_555
C12_2 C13_2 1_555 1_555
C19_2 C20_2 1_555 1_555
O2 C7_2 1_555 1_555
O10 C7_2 1_555 1_555
H3_2 C5_2 1_555 1_555
Eu6 O2 1_555 1_555
C25_2 H20_2 1_555 1_555
C25_2 H21_2 1_555 1_555
O8_2 Eu6 1_555 1_555
N1_2 C23_2 1_555 1_555
C22_2 H13_2 1_555 1_555
H14_2 C22_2 1_555 1_555
H15_2 C22_2 1_555 1_555
C23_2 O8_2 1_555 1_555
C24_2 N1_2 1_555 1_555
H16_2 C24_2 1_555 1_555
H17_2 C24_2 1_555 1_555
H18_2 C24_2 1_555 1_555
C22_2 C23_2 1_555 1_555

#END
