
###############################################################################
#
# This file contains modified crystal structure data generated from the
# MOF subset of the Cambridge Structural Database (CSD) v543 
# hosted by the Cambridge Crystallographic Data Centre (CCDC).
#
# This work is licensed under the Creative Commons
# Attribution-NonCommercial-ShareAlike 4.0 International License.
# To view a copy of this license, visit
# http://creativecommons.org/licenses/by-nc-sa/4.0/
# or send a letter to
# Creative Commons, PO Box 1866, Mountain View, CA 94042, USA.
#
# CIF created using the CSD Python API on 29 September 2022
# The structure has been converted into the P1 space group
# The structure has a 3D framework
# The original CSD entry ZIGREP is in the monoclinic crystal system
# The framework has been calculated to contain at least 10.0% void space
# The void calculation uses a probe of radius 1.32A, grid spacing 0.4
#
###############################################################################

data_ZIGREP
_chemical_formula_moiety         '(C84 H60 Dy4 N4 O44 P4)n'
_symmetry_cell_setting           triclinic
_symmetry_space_group_name_H-M   'P 1'
_symmetry_Int_Tables_number      1
_space_group_name_Hall           'P 1'
loop_
_symmetry_equiv_pos_site_id
_symmetry_equiv_pos_as_xyz
1 x,y,z
_cell_length_a                   11.5403(8)
_cell_length_b                   17.4616(12)
_cell_length_c                   14.9903(11)
_cell_angle_alpha                90
_cell_angle_beta                 91.1400(10)
_cell_angle_gamma                90
_cell_volume                     3020.13
loop_
_atom_site_label
_atom_site_type_symbol
_atom_site_fract_x
_atom_site_fract_y
_atom_site_fract_z
Dy2 Dy 0.08059(2) 0.07173(2) 0.09277(2)
P1 P 0.33581(10) 0.07774(7) 0.25062(8)
O1 O 0.2487(3) 0.07790(19) 0.1762(2)
O3 O 0.8904(3) 0.0401(2) 0.1220(3)
O6 O 0.4011(3) 0.4520(2) 0.3402(3)
O7 O 0.4848(3) 0.4048(2) 0.4623(2)
O8 O 0.0308(3) 0.1250(3) 0.2440(3)
O11 O 0.1902(4) 0.1778(2) 0.0337(3)
H3 H 0.2636 0.1647 0.0264
C1 C 0.4769(4) 0.0552(3) 0.2081(3)
C2 C 0.4835(4) 0.0053(3) 0.1377(4)
C4 C 0.6876(4) 0.0276(3) 0.1286(3)
C5 C 0.6814(5) 0.0751(4) 0.2027(4)
H6 H 0.7486 0.0973 0.2262
C6 C 0.5766(4) 0.0896(4) 0.2416(4)
H7 H 0.5728 0.1224 0.2902
C7 C 0.8005(4) 0.0163(3) 0.0821(3)
C8 C 0.3036(4) 0.0111(3) 0.3380(3)
C13 C 0.1963(5) 0.0138(4) 0.3750(4)
H11 H 0.1417 0.0488 0.3537
C15 C 0.3488(4) 0.1710(3) 0.2995(3)
C16 C 0.3266(5) 0.2333(3) 0.2455(4)
H12 H 0.2954 0.2260 0.1885
C17 C 0.3502(5) 0.3063(3) 0.2752(4)
H13 H 0.3329 0.3480 0.2388
C18 C 0.3999(4) 0.3181(3) 0.3593(3)
C19 C 0.4192(4) 0.2552(3) 0.4148(3)
H14 H 0.4494 0.2625 0.4721
C20 C 0.3939(5) 0.1819(3) 0.3851(3)
H15 H 0.4070 0.1402 0.4224
C21 C 0.4308(4) 0.3968(3) 0.3891(3)
Dy3 Dy 0.41941(2) 0.57173(2) 0.40723(2)
Dy5 Dy 0.58059(2) 0.42827(2) 0.59277(2)
H2 H 0.1619 0.1927 0.9810
O12 O 0.2036(3) 0.0147(2) 0.9932(2)
O2 O 0.7964(3) 0.9853(2) 0.0068(2)
O4 O 0.2895(4) 0.8105(3) 0.5781(3)
O5 O 0.1190(4) 0.8711(3) 0.5839(3)
H1 H 0.1146 0.8495 0.6323
H4 H 0.4169 0.9807 0.1167
C3 C 0.5888(4) 0.9914(4) 0.0976(4)
H5 H 0.5926 0.9576 0.0498
C9 C 0.3824(6) 0.9569(4) 0.3675(5)
H8 H 0.4543 0.9531 0.3410
C10 C 0.3545(6) 0.9080(4) 0.4367(5)
H9 H 0.4089 0.8726 0.4574
C11 C 0.2479(5) 0.9114(3) 0.4749(4)
C12 C 0.1684(5) 0.9649(4) 0.4437(4)
H10 H 0.0957 0.9679 0.4692
C14 C 0.2227(6) 0.8594(4) 0.5509(4)
O14 O 0.0989(3) 0.9520(2) 0.1598(3)
Dy4 Dy 0.91941(2) 0.92827(2) 0.90723(2)
O9 O 0.9828(5) 0.1957(3) 0.1346(3)
O10 O 0.9215(5) 0.2222(3) 0.2666(3)
N1 N 0.9789(5) 0.1828(3) 0.2168(4)
O15 O 0.9848(3) 0.0952(2) 0.9623(2)
P1_2 P 0.16419(10) 0.57774(7) 0.24938(8)
O1_2 O 0.2513(3) 0.57790(19) 0.3238(2)
O7_2 O 0.0152(3) 0.9048(2) 0.0377(2)
O8_2 O 0.4692(3) 0.6250(3) 0.2560(3)
O9_2 O 0.5172(5) 0.6957(3) 0.3654(3)
O10_2 O 0.5785(5) 0.7222(3) 0.2334(3)
O11_2 O 0.3098(4) 0.6778(2) 0.4663(3)
H2_2 H 0.3381 0.6927 0.5190
H3_2 H 0.2364 0.6647 0.4736
N1_2 N 0.5211(5) 0.6828(3) 0.2832(4)
C1_2 C 0.0231(4) 0.5552(3) 0.2919(3)
C2_2 C 0.0165(4) 0.5053(3) 0.3623(4)
H4_2 H 0.0831 0.4807 0.3833
C8_2 C 0.1964(4) 0.5111(3) 0.1620(3)
C9_2 C 0.1176(6) 0.4569(4) 0.1325(5)
H8_2 H 0.0457 0.4531 0.1590
C10_2 C 0.1455(6) 0.4080(4) 0.0633(5)
H9_2 H 0.0911 0.3726 0.0426
C11_2 C 0.2521(5) 0.4114(3) 0.0251(4)
C12_2 C 0.3316(5) 0.4649(4) 0.0563(4)
H10_2 H 0.4043 0.4679 0.0308
C13_2 C 0.3037(5) 0.5138(4) 0.1250(4)
H11_2 H 0.3583 0.5488 0.1463
C15_2 C 0.1512(4) 0.6710(3) 0.2005(3)
C16_2 C 0.1734(5) 0.7333(3) 0.2545(4)
H12_2 H 0.2046 0.7260 0.3115
C17_2 C 0.1498(5) 0.8063(3) 0.2248(4)
H13_2 H 0.1671 0.8480 0.2612
C18_2 C 0.1001(4) 0.8181(3) 0.1407(3)
C19_2 C 0.0808(4) 0.7552(3) 0.0852(3)
H14_2 H 0.0506 0.7625 0.0279
C20_2 C 0.1061(5) 0.6819(3) 0.1149(3)
H15_2 H 0.0930 0.6402 0.0776
C21_2 C 0.0692(4) 0.8968(3) 0.1109(3)
O12_2 O 0.2964(3) 0.5147(2) 0.5068(2)
O13 O 0.6096(3) 0.5401(2) 0.3780(3)
O15_2 O 0.5152(3) 0.5952(2) 0.5377(2)
O2_2 O 0.7036(3) 0.4853(2) 0.4932(2)
C3_2 C 0.9112(4) 0.4914(4) 0.4024(4)
H5_2 H 0.9074 0.4576 0.4502
C4_2 C 0.8124(4) 0.5276(3) 0.3714(3)
C5_2 C 0.8186(5) 0.5751(4) 0.2973(4)
H6_2 H 0.7514 0.5973 0.2738
C6_2 C 0.9234(4) 0.5896(4) 0.2584(4)
H7_2 H 0.9272 0.6224 0.2098
C7_2 C 0.6995(4) 0.5163(3) 0.4179(3)
O9_3 O 0.0172(5) 0.8043(3) 0.8654(3)
O10_3 O 0.0785(5) 0.7778(3) 0.7334(3)
N1_3 N 0.0211(5) 0.8172(3) 0.7832(4)
O13_2 O 0.1096(3) 0.9599(2) 0.8780(3)
O4_2 O 0.7105(4) 0.1895(3) 0.4219(3)
O5_2 O 0.8810(4) 0.1289(3) 0.4161(3)
H1_2 H 0.8854 0.1505 0.3677
H4_3 H 0.5831 0.0193 0.8833
C3_3 C 0.4112(4) 0.0086(4) 0.9024(4)
H5_3 H 0.4074 0.0424 0.9502
C9_3 C 0.6176(6) 0.0431(4) 0.6325(5)
H8_3 H 0.5457 0.0469 0.6590
C10_3 C 0.6455(6) 0.0920(4) 0.5633(5)
H9_3 H 0.5911 0.1274 0.5426
C11_3 C 0.7521(5) 0.0886(3) 0.5251(4)
C12_3 C 0.8316(5) 0.0351(4) 0.5563(4)
H10_3 H 0.9043 0.0321 0.5308
C14_2 C 0.7773(6) 0.1406(4) 0.4491(4)
O14_2 O 0.9011(3) 0.0480(2) 0.8402(3)
H2_3 H 0.8381 0.8073 0.0190
P1_3 P 0.66419(10) 0.92226(7) 0.74938(8)
O1_3 O 0.7513(3) 0.92210(19) 0.8238(2)
O6_2 O 0.5989(3) 0.5480(2) 0.6598(3)
O8_3 O 0.9692(3) 0.8750(3) 0.7560(3)
O11_3 O 0.8098(4) 0.8222(2) 0.9663(3)
H3_3 H 0.7364 0.8353 0.9736
C1_3 C 0.5231(4) 0.9448(3) 0.7919(3)
C2_3 C 0.5165(4) 0.9947(3) 0.8623(4)
C4_3 C 0.3124(4) 0.9724(3) 0.8714(3)
C5_3 C 0.3186(5) 0.9249(4) 0.7973(4)
H6_3 H 0.2514 0.9027 0.7738
C6_3 C 0.4234(4) 0.9104(4) 0.7584(4)
H7_3 H 0.4272 0.8776 0.7098
C7_3 C 0.1995(4) 0.9837(3) 0.9179(3)
C8_3 C 0.6964(4) 0.9889(3) 0.6620(3)
C13_3 C 0.8037(5) 0.9862(4) 0.6250(4)
H11_3 H 0.8583 0.9512 0.6463
C15_3 C 0.6512(4) 0.8290(3) 0.7005(3)
C16_3 C 0.6734(5) 0.7667(3) 0.7545(4)
H12_3 H 0.7046 0.7740 0.8115
C17_3 C 0.6498(5) 0.6937(3) 0.7248(4)
H13_3 H 0.6671 0.6520 0.7612
C18_3 C 0.6001(4) 0.6819(3) 0.6407(3)
C19_3 C 0.5808(4) 0.7448(3) 0.5852(3)
H14_3 H 0.5506 0.7375 0.5279
C20_3 C 0.6061(5) 0.8181(3) 0.6149(3)
H15_3 H 0.5930 0.8598 0.5776
C21_3 C 0.5692(4) 0.6032(3) 0.6109(3)
O3_2 O 0.3904(3) 0.4599(2) 0.6220(3)
C3_4 C 0.0888(4) 0.5086(4) 0.5976(4)
H5_4 H 0.0926 0.5424 0.5498
C4_4 C 0.1876(4) 0.4724(3) 0.6286(3)
C5_4 C 0.1814(5) 0.4249(4) 0.7027(4)
H6_4 H 0.2486 0.4027 0.7262
C6_4 C 0.0766(4) 0.4104(4) 0.7416(4)
H7_4 H 0.0728 0.3776 0.7902
C7_4 C 0.3005(4) 0.4837(3) 0.5821(3)
P1_4 P 0.83581(10) 0.42226(7) 0.75062(8)
O1_4 O 0.7487(3) 0.42210(19) 0.6762(2)
O8_4 O 0.5308(3) 0.3750(3) 0.7440(3)
O9_4 O 0.4828(5) 0.3043(3) 0.6346(3)
O10_4 O 0.4215(5) 0.2778(3) 0.7666(3)
O11_4 O 0.6902(4) 0.3222(2) 0.5337(3)
H2_4 H 0.6619 0.3073 0.4810
H3_4 H 0.7636 0.3353 0.5264
N1_4 N 0.4789(5) 0.3172(3) 0.7168(4)
C1_4 C 0.9769(4) 0.4448(3) 0.7081(3)
C2_4 C 0.9835(4) 0.4947(3) 0.6377(4)
H4_4 H 0.9169 0.5193 0.6167
C8_4 C 0.8036(4) 0.4889(3) 0.8380(3)
C9_4 C 0.8824(6) 0.5431(4) 0.8675(5)
H8_4 H 0.9543 0.5469 0.8410
C10_4 C 0.8545(6) 0.5920(4) 0.9367(5)
H9_4 H 0.9089 0.6274 0.9574
C11_4 C 0.7479(5) 0.5886(3) 0.9749(4)
C12_4 C 0.6684(5) 0.5351(4) 0.9437(4)
H10_4 H 0.5957 0.5321 0.9692
C13_4 C 0.6963(5) 0.4862(4) 0.8750(4)
H11_4 H 0.6417 0.4512 0.8537
C15_4 C 0.8488(4) 0.3290(3) 0.7995(3)
C16_4 C 0.8266(5) 0.2667(3) 0.7455(4)
H12_4 H 0.7954 0.2740 0.6885
C17_4 C 0.8502(5) 0.1937(3) 0.7752(4)
H13_4 H 0.8329 0.1520 0.7388
C18_4 C 0.8999(4) 0.1819(3) 0.8593(3)
C19_4 C 0.9192(4) 0.2448(3) 0.9148(3)
H14_4 H 0.9494 0.2375 0.9721
C20_4 C 0.8939(5) 0.3181(3) 0.8851(3)
H15_4 H 0.9070 0.3598 0.9224
C21_4 C 0.9308(4) 0.1032(3) 0.8891(3)
O4_3 O 0.2105(4) 0.3105(3) 0.9219(3)
O5_3 O 0.3810(4) 0.3711(3) 0.9161(3)
H1_3 H 0.3854 0.3495 0.8677
C14_3 C 0.2773(6) 0.3594(4) 0.9491(4)
O4_4 O 0.7895(4) 0.6895(3) 0.0781(3)
O5_4 O 0.6190(4) 0.6289(3) 0.0839(3)
H1_4 H 0.6146 0.6505 0.1323
C14_4 C 0.7227(6) 0.6406(4) 0.0509(4)
loop_
_geom_bond_atom_site_label_1
_geom_bond_atom_site_label_2
_geom_bond_site_symmetry_1
_geom_bond_site_symmetry_2
Dy2 O1 1_555 1_555
P1 O1 1_555 1_555
O3 C7 1_555 1_555
O6 C21 1_555 1_555
O7 C21 1_555 1_555
O8 Dy2 1_555 1_555
O11 Dy2 1_555 1_555
H3 O11 1_555 1_555
C1 P1 1_555 1_555
C2 C1 1_555 1_555
C5 C4 1_555 1_555
H6 C5 1_555 1_555
C6 C1 1_555 1_555
H7 C6 1_555 1_555
C7 C4 1_555 1_555
C8 P1 1_555 1_555
C13 C8 1_555 1_555
H11 C13 1_555 1_555
C15 P1 1_555 1_555
C16 C15 1_555 1_555
H12 C16 1_555 1_555
C17 C16 1_555 1_555
H13 C17 1_555 1_555
C18 C17 1_555 1_555
C19 C18 1_555 1_555
H14 C19 1_555 1_555
C20 C15 1_555 1_555
H15 C20 1_555 1_555
C21 C18 1_555 1_555
Dy3 O6 1_555 1_555
Dy5 O7 1_555 1_555
C5 C6 1_555 1_555
C19 C20 1_555 1_555
O4 C14 1_555 1_555
O5 H1 1_555 1_555
H5 C3 1_555 1_555
H8 C9 1_555 1_555
C10 C9 1_555 1_555
H9 C10 1_555 1_555
C11 C10 1_555 1_555
C12 C11 1_555 1_555
H10 C12 1_555 1_555
C14 O5 1_555 1_555
C11 C14 1_555 1_555
O10 N1 1_555 1_555
O9 N1 1_555 1_555
Dy3 O1_2 1_555 1_555
P1_2 O1_2 1_555 1_555
O14 C21_2 1_555 1_555
O7_2 C21_2 1_555 1_555
O8_2 Dy3 1_555 1_555
O9_2 Dy3 1_555 1_555
O10_2 N1_2 1_555 1_555
O11_2 Dy3 1_555 1_555
H2_2 O11_2 1_555 1_555
H3_2 O11_2 1_555 1_555
N1_2 O8_2 1_555 1_555
C1_2 P1_2 1_555 1_555
C2_2 C1_2 1_555 1_555
H4_2 C2_2 1_555 1_555
C8_2 P1_2 1_555 1_555
C9_2 C8_2 1_555 1_555
H8_2 C9_2 1_555 1_555
C10_2 C9_2 1_555 1_555
H9_2 C10_2 1_555 1_555
C11_2 C10_2 1_555 1_555
C12_2 C11_2 1_555 1_555
H10_2 C12_2 1_555 1_555
C13_2 C8_2 1_555 1_555
H11_2 C13_2 1_555 1_555
C15_2 P1_2 1_555 1_555
C16_2 C15_2 1_555 1_555
H12_2 C16_2 1_555 1_555
C17_2 C16_2 1_555 1_555
H13_2 C17_2 1_555 1_555
C18_2 C17_2 1_555 1_555
C19_2 C18_2 1_555 1_555
H14_2 C19_2 1_555 1_555
C20_2 C15_2 1_555 1_555
H15_2 C20_2 1_555 1_555
C21_2 C18_2 1_555 1_555
O12_2 Dy3 1_555 1_555
O13 Dy3 1_555 1_555
O15_2 Dy3 1_555 1_555
O9_2 N1_2 1_555 1_555
C12_2 C13_2 1_555 1_555
C19_2 C20_2 1_555 1_555
O2_2 C7_2 1_555 1_555
O13 C7_2 1_555 1_555
H5_2 C3_2 1_555 1_555
C4_2 C3_2 1_555 1_555
C5_2 C4_2 1_555 1_555
H6_2 C5_2 1_555 1_555
H7_2 C6_2 1_555 1_555
C7_2 C4_2 1_555 1_555
Dy5 O2_2 1_555 1_555
C5_2 C6_2 1_555 1_555
O10_3 N1_3 1_555 1_555
O9_3 N1_3 1_555 1_555
O4_2 C14_2 1_555 1_555
O5_2 H1_2 1_555 1_555
H5_3 C3_3 1_555 1_555
H8_3 C9_3 1_555 1_555
C10_3 C9_3 1_555 1_555
H9_3 C10_3 1_555 1_555
C11_3 C10_3 1_555 1_555
C12_3 C11_3 1_555 1_555
H10_3 C12_3 1_555 1_555
C14_2 O5_2 1_555 1_555
C11_3 C14_2 1_555 1_555
Dy4 O1_3 1_555 1_555
P1_3 O1_3 1_555 1_555
O13_2 C7_3 1_555 1_555
O6_2 C21_3 1_555 1_555
O15_2 C21_3 1_555 1_555
O8_3 Dy4 1_555 1_555
O11_3 Dy4 1_555 1_555
H3_3 O11_3 1_555 1_555
C1_3 P1_3 1_555 1_555
C2_3 C1_3 1_555 1_555
C5_3 C4_3 1_555 1_555
H6_3 C5_3 1_555 1_555
C6_3 C1_3 1_555 1_555
H7_3 C6_3 1_555 1_555
C7_3 C4_3 1_555 1_555
C8_3 P1_3 1_555 1_555
C13_3 C8_3 1_555 1_555
H11_3 C13_3 1_555 1_555
C15_3 P1_3 1_555 1_555
C16_3 C15_3 1_555 1_555
H12_3 C16_3 1_555 1_555
C17_3 C16_3 1_555 1_555
H13_3 C17_3 1_555 1_555
C18_3 C17_3 1_555 1_555
C19_3 C18_3 1_555 1_555
H14_3 C19_3 1_555 1_555
C20_3 C15_3 1_555 1_555
H15_3 C20_3 1_555 1_555
C21_3 C18_3 1_555 1_555
Dy5 O6_2 1_555 1_555
C5_3 C6_3 1_555 1_555
C19_3 C20_3 1_555 1_555
O12_2 C7_4 1_555 1_555
O3_2 C7_4 1_555 1_555
H5_4 C3_4 1_555 1_555
C4_4 C3_4 1_555 1_555
C5_4 C4_4 1_555 1_555
H6_4 C5_4 1_555 1_555
H7_4 C6_4 1_555 1_555
C7_4 C4_4 1_555 1_555
Dy5 O3_2 1_555 1_555
C5_4 C6_4 1_555 1_555
Dy5 O1_4 1_555 1_555
P1_4 O1_4 1_555 1_555
O14_2 C21_4 1_555 1_555
O15 C21_4 1_555 1_555
O8_4 Dy5 1_555 1_555
O9_4 Dy5 1_555 1_555
O10_4 N1_4 1_555 1_555
O11_4 Dy5 1_555 1_555
H2_4 O11_4 1_555 1_555
H3_4 O11_4 1_555 1_555
N1_4 O8_4 1_555 1_555
C1_4 P1_4 1_555 1_555
C2_4 C1_4 1_555 1_555
H4_4 C2_4 1_555 1_555
C8_4 P1_4 1_555 1_555
C9_4 C8_4 1_555 1_555
H8_4 C9_4 1_555 1_555
C10_4 C9_4 1_555 1_555
H9_4 C10_4 1_555 1_555
C11_4 C10_4 1_555 1_555
C12_4 C11_4 1_555 1_555
H10_4 C12_4 1_555 1_555
C13_4 C8_4 1_555 1_555
H11_4 C13_4 1_555 1_555
C15_4 P1_4 1_555 1_555
C16_4 C15_4 1_555 1_555
H12_4 C16_4 1_555 1_555
C17_4 C16_4 1_555 1_555
H13_4 C17_4 1_555 1_555
C18_4 C17_4 1_555 1_555
C19_4 C18_4 1_555 1_555
H14_4 C19_4 1_555 1_555
C20_4 C15_4 1_555 1_555
H15_4 C20_4 1_555 1_555
C21_4 C18_4 1_555 1_555
O9_4 N1_4 1_555 1_555
C12_4 C13_4 1_555 1_555
C19_4 C20_4 1_555 1_555
O4_3 C14_3 1_555 1_555
O5_3 H1_3 1_555 1_555
C14_3 O5_3 1_555 1_555
O4_4 C14_4 1_555 1_555
O5_4 H1_4 1_555 1_555
C14_4 O5_4 1_555 1_555

#END
