
###############################################################################
#
# This file contains modified crystal structure data generated from the
# MOF subset of the Cambridge Structural Database (CSD) v543 
# hosted by the Cambridge Crystallographic Data Centre (CCDC).
#
# This work is licensed under the Creative Commons
# Attribution-NonCommercial-ShareAlike 4.0 International License.
# To view a copy of this license, visit
# http://creativecommons.org/licenses/by-nc-sa/4.0/
# or send a letter to
# Creative Commons, PO Box 1866, Mountain View, CA 94042, USA.
#
# CIF created using the CSD Python API on 29 September 2022
# The structure has been converted into the P1 space group
# The structure has a 3D framework
# The original CSD entry ZIGRIT is in the monoclinic crystal system
# The framework has been calculated to contain at least 10.0% void space
# The void calculation uses a probe of radius 1.32A, grid spacing 0.4
#
###############################################################################

data_ZIGRIT
_chemical_formula_moiety         '(C84 H60 N4 Nd4 O42 P4)n'
_symmetry_cell_setting           triclinic
_symmetry_space_group_name_H-M   'P 1'
_symmetry_Int_Tables_number      1
_space_group_name_Hall           'P 1'
loop_
_symmetry_equiv_pos_site_id
_symmetry_equiv_pos_as_xyz
1 x,y,z
_cell_length_a                   11.668(2)
_cell_length_b                   17.693(4)
_cell_length_c                   14.716(3)
_cell_angle_alpha                90
_cell_angle_beta                 91.504(3)
_cell_angle_gamma                90
_cell_volume                     3036.95
loop_
_atom_site_label
_atom_site_type_symbol
_atom_site_fract_x
_atom_site_fract_y
_atom_site_fract_z
O8 O 0.0202(9) 0.1974(4) 0.3656(5)
O10 O 0.0853(10) 0.2211(5) 0.2327(6)
N1 N 0.0251(8) 0.1844(5) 0.2832(6)
O13 O 0.1167(4) 0.0421(4) 0.3752(4)
O15 O 0.0279(5) 0.0809(3) 0.5483(4)
Nd1 Nd 0.92241(3) 0.07136(2) 0.40839(3)
P1 P 0.66250(15) 0.08484(10) 0.24759(14)
O1 O 0.7499(5) 0.0822(3) 0.3231(4)
O6 O 0.5279(5) 0.4191(3) 0.0483(4)
O7 O 0.6007(6) 0.4557(3) 0.1783(5)
O9 O 0.9715(6) 0.1309(4) 0.2524(5)
O11 O 0.8178(6) 0.1796(4) 0.4785(6)
H2 H 0.8355 0.1827 0.5355
H3 H 0.7452 0.1727 0.4722
C1 C 0.5245(6) 0.0622(4) 0.2905(5)
C2 C 0.4256(7) 0.0969(6) 0.2585(7)
H4 H 0.4285 0.1311 0.2107
C3 C 0.3227(7) 0.0806(6) 0.2975(8)
H5 H 0.2560 0.1035 0.2750
C4 C 0.3165(6) 0.0313(5) 0.3689(6)
C6 C 0.5180(7) 0.0111(5) 0.3612(7)
C7 C 0.2047(6) 0.0173(5) 0.4142(6)
C8 C 0.6929(7) 0.0202(4) 0.1569(5)
C13 C 0.7987(8) 0.0226(6) 0.1204(7)
H11 H 0.8524 0.0579 0.1409
C15 C 0.6491(6) 0.1790(4) 0.2020(5)
C16 C 0.6718(8) 0.2376(5) 0.2616(6)
H12 H 0.7041 0.2281 0.3189
C17 C 0.6459(9) 0.3104(5) 0.2349(6)
H13 H 0.6585 0.3503 0.2751
C18 C 0.6016(7) 0.3242(4) 0.1494(6)
C19 C 0.5843(7) 0.2705(5) 0.0912(5)
H14 H 0.5556 0.2820 0.0332
C20 C 0.6090(7) 0.1928(4) 0.1151(6)
H15 H 0.5982 0.1538 0.0733
C21 C 0.5758(7) 0.4044(5) 0.1235(6)
Nd3 Nd 0.57759(3) 0.57136(2) 0.09161(3)
O12 O 0.7919(4) 0.0174(4) 0.5112(4)
Nd5 Nd 0.42241(3) 0.42864(2) 0.90839(3)
O2 O 0.2081(4) 0.9826(4) 0.4888(4)
C5 C 0.4138(7) 0.9957(6) 0.3992(6)
H6 H 0.4099 0.9606 0.4460
H7 H 0.5840 0.9871 0.3831
C9 C 0.6146(9) 0.9670(6) 0.1270(8)
H8 H 0.5429 0.9641 0.1529
C10 C 0.6422(10) 0.9192(7) 0.0601(10)
H9 H 0.5877 0.8848 0.0385
C11 C 0.7482(9) 0.9196(5) 0.0228(7)
C12 C 0.8257(9) 0.9721(6) 0.0528(8)
H10 H 0.8978 0.9740 0.0273
Nd4 Nd 0.07759(3) 0.92864(2) 0.59161(3)
O14 O 0.9721(5) 0.9191(3) 0.4517(4)
O16 O 0.8993(6) 0.9557(3) 0.3217(5)
O2_2 O 0.2919(4) 0.4826(4) 0.0112(4)
O3 O 0.3833(4) 0.5421(4) 0.1248(4)
C2_2 C 0.0744(7) 0.5969(6) 0.2415(7)
H4_2 H 0.0715 0.6311 0.2893
C3_2 C 0.1773(7) 0.5806(6) 0.2025(8)
H5_2 H 0.2440 0.6035 0.2250
C4_2 C 0.1835(6) 0.5313(5) 0.1311(6)
C5_2 C 0.0862(7) 0.4957(6) 0.1008(6)
H6_2 H 0.0901 0.4606 0.0540
C7_2 C 0.2953(6) 0.5173(5) 0.0858(6)
P1_2 P 0.83750(15) 0.58484(10) 0.25241(14)
O1_2 O 0.7501(5) 0.5822(3) 0.1769(4)
O4 O 0.6251(8) 0.3742(6) 0.5842(6)
H1 H 0.6298 0.3758 0.6399
O5 O 0.7931(7) 0.3162(4) 0.5764(6)
O8_2 O 0.4798(9) 0.6974(4) 0.1344(5)
O9_2 O 0.5285(6) 0.6309(4) 0.2476(5)
O10_2 O 0.4147(10) 0.7211(5) 0.2673(6)
O11_2 O 0.6822(6) 0.6796(4) 0.0215(6)
H3_2 H 0.7548 0.6727 0.0278
N1_2 N 0.4749(8) 0.6844(5) 0.2168(6)
C1_2 C 0.9755(6) 0.5622(4) 0.2095(5)
C6_2 C 0.9820(7) 0.5111(5) 0.1388(7)
H7_2 H 0.9160 0.4871 0.1169
C8_2 C 0.8071(7) 0.5202(4) 0.3431(5)
C9_2 C 0.8854(9) 0.4670(6) 0.3730(8)
H8_2 H 0.9571 0.4641 0.3471
C10_2 C 0.8578(10) 0.4192(7) 0.4399(10)
H9_2 H 0.9123 0.3848 0.4615
C11_2 C 0.7518(9) 0.4196(5) 0.4772(7)
C12_2 C 0.6743(9) 0.4721(6) 0.4472(8)
H10_2 H 0.6022 0.4740 0.4727
C13_2 C 0.7013(8) 0.5226(6) 0.3796(7)
H11_2 H 0.6476 0.5579 0.3591
C14 C 0.7276(9) 0.3643(5) 0.5515(7)
C15_2 C 0.8509(6) 0.6790(4) 0.2980(5)
C16_2 C 0.8282(8) 0.7376(5) 0.2384(6)
H12_2 H 0.7959 0.7281 0.1811
C17_2 C 0.8541(9) 0.8104(5) 0.2651(6)
H13_2 H 0.8415 0.8503 0.2249
C18_2 C 0.8984(7) 0.8242(4) 0.3506(6)
C19_2 C 0.9157(7) 0.7705(5) 0.4088(5)
H14_2 H 0.9444 0.7820 0.4668
C20_2 C 0.8910(7) 0.6928(4) 0.3849(6)
H15_2 H 0.9018 0.6538 0.4267
C21_2 C 0.9242(7) 0.9044(5) 0.3765(6)
H2_2 H 0.6645 0.6827 0.9645
O12_2 O 0.7081(4) 0.5174(4) 0.9888(4)
O15_2 O 0.4721(5) 0.5809(3) 0.9517(4)
C5_3 C 0.5862(7) 0.0043(6) 0.6008(6)
H6_3 H 0.5901 0.0394 0.5540
H7_3 H 0.4160 0.0129 0.6169
C9_3 C 0.3854(9) 0.0330(6) 0.8730(8)
H8_3 H 0.4571 0.0359 0.8471
C10_3 C 0.3578(10) 0.0808(7) 0.9399(10)
H9_3 H 0.4123 0.1152 0.9615
C11_3 C 0.2518(9) 0.0804(5) 0.9772(7)
C12_3 C 0.1743(9) 0.0279(6) 0.9472(8)
H10_3 H 0.1022 0.0260 0.9727
O16_2 O 0.1007(6) 0.0443(3) 0.6783(5)
P1_3 P 0.33750(15) 0.91516(10) 0.75241(14)
O1_3 O 0.2501(5) 0.9178(3) 0.6769(4)
O3_2 O 0.8833(4) 0.9579(4) 0.6248(4)
O7_2 O 0.3993(6) 0.5443(3) 0.8217(5)
O9_3 O 0.0285(6) 0.8691(4) 0.7476(5)
O11_3 O 0.1822(6) 0.8204(4) 0.5215(6)
H2_3 H 0.1645 0.8173 0.4645
H3_3 H 0.2548 0.8273 0.5278
C1_3 C 0.4755(6) 0.9378(4) 0.7095(5)
C2_3 C 0.5744(7) 0.9031(6) 0.7415(7)
H4_3 H 0.5715 0.8689 0.7893
C3_3 C 0.6773(7) 0.9194(6) 0.7025(8)
H5_3 H 0.7440 0.8965 0.7250
C4_3 C 0.6835(6) 0.9687(5) 0.6311(6)
C6_3 C 0.4820(7) 0.9889(5) 0.6388(7)
C7_3 C 0.7953(6) 0.9827(5) 0.5858(6)
C8_3 C 0.3071(7) 0.9798(4) 0.8431(5)
C13_3 C 0.2013(8) 0.9774(6) 0.8796(7)
H11_3 H 0.1476 0.9421 0.8591
C15_3 C 0.3509(6) 0.8210(4) 0.7980(5)
C16_3 C 0.3282(8) 0.7624(5) 0.7384(6)
H12_3 H 0.2959 0.7719 0.6811
C17_3 C 0.3541(9) 0.6896(5) 0.7651(6)
H13_3 H 0.3415 0.6497 0.7249
C18_3 C 0.3984(7) 0.6758(4) 0.8506(6)
C19_3 C 0.4157(7) 0.7295(5) 0.9088(5)
H14_3 H 0.4444 0.7180 0.9668
C20_3 C 0.3910(7) 0.8072(4) 0.8849(6)
H15_3 H 0.4018 0.8462 0.9267
C21_3 C 0.4242(7) 0.5956(5) 0.8765(6)
O8_3 O 0.9798(9) 0.8026(4) 0.6344(5)
O10_3 O 0.9147(10) 0.7789(5) 0.7673(6)
N1_3 N 0.9749(8) 0.8156(5) 0.7168(6)
H2_4 H 0.3355 0.3173 0.0355
P1_4 P 0.16250(15) 0.41516(10) 0.74759(14)
O1_4 O 0.2499(5) 0.4178(3) 0.8231(4)
O4_2 O 0.3749(8) 0.6258(6) 0.4158(6)
H1_2 H 0.3702 0.6242 0.3601
O5_2 O 0.2069(7) 0.6838(4) 0.4236(6)
O8_4 O 0.5202(9) 0.3026(4) 0.8656(5)
O9_4 O 0.4715(6) 0.3691(4) 0.7524(5)
O10_4 O 0.5853(10) 0.2789(5) 0.7327(6)
O11_4 O 0.3178(6) 0.3204(4) 0.9785(6)
H3_4 H 0.2452 0.3273 0.9722
N1_4 N 0.5251(8) 0.3156(5) 0.7832(6)
C1_4 C 0.0245(6) 0.4378(4) 0.7905(5)
C6_4 C 0.0180(7) 0.4889(5) 0.8612(7)
H7_4 H 0.0840 0.5129 0.8831
C8_4 C 0.1929(7) 0.4798(4) 0.6569(5)
C9_4 C 0.1146(9) 0.5330(6) 0.6270(8)
H8_4 H 0.0429 0.5359 0.6529
C10_4 C 0.1422(10) 0.5808(7) 0.5601(10)
H9_4 H 0.0877 0.6152 0.5385
C11_4 C 0.2482(9) 0.5804(5) 0.5228(7)
C12_4 C 0.3257(9) 0.5279(6) 0.5528(8)
H10_4 H 0.3978 0.5260 0.5273
C13_4 C 0.2987(8) 0.4774(6) 0.6204(7)
H11_4 H 0.3524 0.4421 0.6409
C14_2 C 0.2724(9) 0.6357(5) 0.4485(7)
C15_4 C 0.1491(6) 0.3210(4) 0.7020(5)
C16_4 C 0.1718(8) 0.2624(5) 0.7616(6)
H12_4 H 0.2041 0.2719 0.8189
C17_4 C 0.1459(9) 0.1896(5) 0.7349(6)
H13_4 H 0.1585 0.1497 0.7751
C18_4 C 0.1016(7) 0.1758(4) 0.6494(6)
C19_4 C 0.0843(7) 0.2295(5) 0.5912(5)
H14_4 H 0.0556 0.2180 0.5332
C20_4 C 0.1090(7) 0.3072(4) 0.6151(6)
H15_4 H 0.0982 0.3462 0.5733
C21_4 C 0.0758(7) 0.0956(5) 0.6235(6)
O13_2 O 0.6167(4) 0.4579(4) 0.8752(4)
C2_4 C 0.9256(7) 0.4031(6) 0.7585(7)
H4_4 H 0.9285 0.3689 0.7107
C3_4 C 0.8227(7) 0.4194(6) 0.7975(8)
H5_4 H 0.7560 0.3965 0.7750
C4_4 C 0.8165(6) 0.4687(5) 0.8689(6)
C5_4 C 0.9138(7) 0.5043(6) 0.8992(6)
H6_4 H 0.9099 0.5394 0.9460
C7_4 C 0.7047(6) 0.4827(5) 0.9142(6)
O4_3 O 0.8749(8) 0.8742(6) 0.9158(6)
H1_3 H 0.8702 0.8758 0.8601
O5_3 O 0.7069(7) 0.8162(4) 0.9236(6)
C14_3 C 0.7724(9) 0.8643(5) 0.9485(7)
O4_4 O 0.1251(8) 0.1258(6) 0.0842(6)
H1_4 H 0.1298 0.1242 0.1399
O5_4 O 0.2931(7) 0.1838(4) 0.0764(6)
C14_4 C 0.2276(9) 0.1357(5) 0.0515(7)
loop_
_geom_bond_atom_site_label_1
_geom_bond_atom_site_label_2
_geom_bond_site_symmetry_1
_geom_bond_site_symmetry_2
O10 N1 1_555 1_555
N1 O8 1_555 1_555
Nd1 O1 1_555 1_555
P1 O1 1_555 1_555
O13 C7 1_555 1_555
O6 C21 1_555 1_555
O7 C21 1_555 1_555
O9 Nd1 1_555 1_555
O11 Nd1 1_555 1_555
H2 O11 1_555 1_555
H3 O11 1_555 1_555
C1 P1 1_555 1_555
C2 C1 1_555 1_555
H4 C2 1_555 1_555
C3 C2 1_555 1_555
H5 C3 1_555 1_555
C4 C3 1_555 1_555
C6 C1 1_555 1_555
C7 C4 1_555 1_555
C8 P1 1_555 1_555
C13 C8 1_555 1_555
H11 C13 1_555 1_555
C15 P1 1_555 1_555
C16 C15 1_555 1_555
H12 C16 1_555 1_555
C17 C16 1_555 1_555
H13 C17 1_555 1_555
C18 C17 1_555 1_555
C19 C18 1_555 1_555
H14 C19 1_555 1_555
C20 C15 1_555 1_555
H15 C20 1_555 1_555
C21 C18 1_555 1_555
Nd3 O6 1_555 1_555
O12 Nd1 1_555 1_555
O7 Nd3 1_555 1_555
C19 C20 1_555 1_555
H6 C5 1_555 1_555
H8 C9 1_555 1_555
C10 C9 1_555 1_555
H9 C10 1_555 1_555
C11 C10 1_555 1_555
C12 C11 1_555 1_555
H10 C12 1_555 1_555
Nd4 O2 1_555 1_555
O2_2 C7_2 1_555 1_555
O3 C7_2 1_555 1_555
H4_2 C2_2 1_555 1_555
C3_2 C2_2 1_555 1_555
H5_2 C3_2 1_555 1_555
C4_2 C3_2 1_555 1_555
C5_2 C4_2 1_555 1_555
H6_2 C5_2 1_555 1_555
C7_2 C4_2 1_555 1_555
Nd3 O3 1_555 1_555
Nd3 O1_2 1_555 1_555
P1_2 O1_2 1_555 1_555
O4 H1 1_555 1_555
O5 C14 1_555 1_555
O14 C21_2 1_555 1_555
O16 C21_2 1_555 1_555
O8_2 Nd3 1_555 1_555
O9_2 Nd3 1_555 1_555
O10_2 N1_2 1_555 1_555
O11_2 Nd3 1_555 1_555
H3_2 O11_2 1_555 1_555
N1_2 O8_2 1_555 1_555
C1_2 P1_2 1_555 1_555
C6_2 C1_2 1_555 1_555
H7_2 C6_2 1_555 1_555
C8_2 P1_2 1_555 1_555
C9_2 C8_2 1_555 1_555
H8_2 C9_2 1_555 1_555
C10_2 C9_2 1_555 1_555
H9_2 C10_2 1_555 1_555
C11_2 C10_2 1_555 1_555
C12_2 C11_2 1_555 1_555
H10_2 C12_2 1_555 1_555
C13_2 C8_2 1_555 1_555
H11_2 C13_2 1_555 1_555
C14 O4 1_555 1_555
C15_2 P1_2 1_555 1_555
C16_2 C15_2 1_555 1_555
H12_2 C16_2 1_555 1_555
C17_2 C16_2 1_555 1_555
H13_2 C17_2 1_555 1_555
C18_2 C17_2 1_555 1_555
C19_2 C18_2 1_555 1_555
H14_2 C19_2 1_555 1_555
C20_2 C15_2 1_555 1_555
H15_2 C20_2 1_555 1_555
C21_2 C18_2 1_555 1_555
O9_2 N1_2 1_555 1_555
C11_2 C14 1_555 1_555
C12_2 C13_2 1_555 1_555
C19_2 C20_2 1_555 1_555
H6_3 C5_3 1_555 1_555
H8_3 C9_3 1_555 1_555
C10_3 C9_3 1_555 1_555
H9_3 C10_3 1_555 1_555
C11_3 C10_3 1_555 1_555
C12_3 C11_3 1_555 1_555
H10_3 C12_3 1_555 1_555
Nd4 O1_3 1_555 1_555
P1_3 O1_3 1_555 1_555
O3_2 C7_3 1_555 1_555
O15_2 C21_3 1_555 1_555
O7_2 C21_3 1_555 1_555
O9_3 Nd4 1_555 1_555
O11_3 Nd4 1_555 1_555
H2_3 O11_3 1_555 1_555
H3_3 O11_3 1_555 1_555
C1_3 P1_3 1_555 1_555
C2_3 C1_3 1_555 1_555
H4_3 C2_3 1_555 1_555
C3_3 C2_3 1_555 1_555
H5_3 C3_3 1_555 1_555
C4_3 C3_3 1_555 1_555
C6_3 C1_3 1_555 1_555
C7_3 C4_3 1_555 1_555
C8_3 P1_3 1_555 1_555
C13_3 C8_3 1_555 1_555
H11_3 C13_3 1_555 1_555
C15_3 P1_3 1_555 1_555
C16_3 C15_3 1_555 1_555
H12_3 C16_3 1_555 1_555
C17_3 C16_3 1_555 1_555
H13_3 C17_3 1_555 1_555
C18_3 C17_3 1_555 1_555
C19_3 C18_3 1_555 1_555
H14_3 C19_3 1_555 1_555
C20_3 C15_3 1_555 1_555
H15_3 C20_3 1_555 1_555
C21_3 C18_3 1_555 1_555
Nd5 O15_2 1_555 1_555
O7_2 Nd5 1_555 1_555
C19_3 C20_3 1_555 1_555
O10_3 N1_3 1_555 1_555
N1_3 O8_3 1_555 1_555
Nd5 O1_4 1_555 1_555
P1_4 O1_4 1_555 1_555
O4_2 H1_2 1_555 1_555
O5_2 C14_2 1_555 1_555
O15 C21_4 1_555 1_555
O16_2 C21_4 1_555 1_555
O8_4 Nd5 1_555 1_555
O9_4 Nd5 1_555 1_555
O10_4 N1_4 1_555 1_555
O11_4 Nd5 1_555 1_555
H3_4 O11_4 1_555 1_555
N1_4 O8_4 1_555 1_555
C1_4 P1_4 1_555 1_555
C6_4 C1_4 1_555 1_555
H7_4 C6_4 1_555 1_555
C8_4 P1_4 1_555 1_555
C9_4 C8_4 1_555 1_555
H8_4 C9_4 1_555 1_555
C10_4 C9_4 1_555 1_555
H9_4 C10_4 1_555 1_555
C11_4 C10_4 1_555 1_555
C12_4 C11_4 1_555 1_555
H10_4 C12_4 1_555 1_555
C13_4 C8_4 1_555 1_555
H11_4 C13_4 1_555 1_555
C14_2 O4_2 1_555 1_555
C15_4 P1_4 1_555 1_555
C16_4 C15_4 1_555 1_555
H12_4 C16_4 1_555 1_555
C17_4 C16_4 1_555 1_555
H13_4 C17_4 1_555 1_555
C18_4 C17_4 1_555 1_555
C19_4 C18_4 1_555 1_555
H14_4 C19_4 1_555 1_555
C20_4 C15_4 1_555 1_555
H15_4 C20_4 1_555 1_555
C21_4 C18_4 1_555 1_555
O13_2 Nd5 1_555 1_555
O9_4 N1_4 1_555 1_555
C11_4 C14_2 1_555 1_555
C12_4 C13_4 1_555 1_555
C19_4 C20_4 1_555 1_555
O12_2 C7_4 1_555 1_555
O13_2 C7_4 1_555 1_555
H4_4 C2_4 1_555 1_555
C3_4 C2_4 1_555 1_555
H5_4 C3_4 1_555 1_555
C4_4 C3_4 1_555 1_555
C5_4 C4_4 1_555 1_555
H6_4 C5_4 1_555 1_555
C7_4 C4_4 1_555 1_555
O4_3 H1_3 1_555 1_555
O5_3 C14_3 1_555 1_555
C14_3 O4_3 1_555 1_555
O4_4 H1_4 1_555 1_555
O5_4 C14_4 1_555 1_555
C14_4 O4_4 1_555 1_555

#END
