
###############################################################################
#
# This file contains modified crystal structure data generated from the
# MOF subset of the Cambridge Structural Database (CSD) v543 
# hosted by the Cambridge Crystallographic Data Centre (CCDC).
#
# This work is licensed under the Creative Commons
# Attribution-NonCommercial-ShareAlike 4.0 International License.
# To view a copy of this license, visit
# http://creativecommons.org/licenses/by-nc-sa/4.0/
# or send a letter to
# Creative Commons, PO Box 1866, Mountain View, CA 94042, USA.
#
# CIF created using the CSD Python API on 29 September 2022
# The structure has been converted into the P1 space group
# The structure has a 3D framework
# The original CSD entry ZIGRAL is in the monoclinic crystal system
# The framework has been calculated to contain at least 10.0% void space
# The void calculation uses a probe of radius 1.32A, grid spacing 0.4
#
###############################################################################

data_ZIGRAL
_chemical_formula_moiety         '(C84 H60 N4 O44 P4 Sm4)n'
_symmetry_cell_setting           triclinic
_symmetry_space_group_name_H-M   'P 1'
_symmetry_Int_Tables_number      1
_space_group_name_Hall           'P 1'
loop_
_symmetry_equiv_pos_site_id
_symmetry_equiv_pos_as_xyz
1 x,y,z
_cell_length_a                   11.6600(8)
_cell_length_b                   17.6914(12)
_cell_length_c                   14.8231(10)
_cell_angle_alpha                90
_cell_angle_beta                 91.3910(10)
_cell_angle_gamma                90
_cell_volume                     3056.83
loop_
_atom_site_label
_atom_site_type_symbol
_atom_site_fract_x
_atom_site_fract_y
_atom_site_fract_z
Sm2 Sm 0.07839(2) 0.07109(2) 0.09183(2)
P1 P 0.33724(7) 0.08287(5) 0.25138(6)
O1 O 0.2498(2) 0.08146(12) 0.17628(16)
O3 O 0.8856(2) 0.04114(16) 0.12412(17)
O6 O 0.4762(2) 0.41464(14) 0.45511(18)
O7 O 0.3984(2) 0.45440(14) 0.32724(18)
O8 O 0.0298(2) 0.12806(17) 0.24613(18)
O11 O 0.1850(3) 0.17825(16) 0.0252(2)
H3 H 0.2568 0.1644 0.0105
C1 C 0.4761(3) 0.06022(19) 0.2095(2)
C2 C 0.5754(3) 0.0948(3) 0.2416(3)
H4 H 0.5720 0.1289 0.2893
C3 C 0.6796(3) 0.0790(2) 0.2032(3)
H5 H 0.7464 0.1013 0.2263
C4 C 0.6848(3) 0.0300(2) 0.1302(2)
C6 C 0.4828(3) 0.0099(2) 0.1391(3)
C7 C 0.7964(3) 0.0173(2) 0.0847(2)
C8 C 0.3062(3) 0.01788(19) 0.3410(2)
C13 C 0.1999(4) 0.0198(2) 0.3786(3)
H11 H 0.1457 0.0547 0.3581
C15 C 0.3500(3) 0.17616(18) 0.2981(2)
C16 C 0.3923(3) 0.18981(19) 0.3848(2)
H12 H 0.4048 0.1498 0.4245
C17 C 0.4161(3) 0.2635(2) 0.4123(2)
H13 H 0.4440 0.2727 0.4705
C18 C 0.3985(3) 0.32289(18) 0.3535(2)
C19 C 0.3518(3) 0.3092(2) 0.2685(2)
H14 H 0.3360 0.3495 0.2299
C20 C 0.3283(4) 0.2364(2) 0.2403(2)
H15 H 0.2980 0.2278 0.1826
C21 C 0.4262(3) 0.4023(2) 0.3800(3)
Sm3 Sm 0.42161(2) 0.57109(2) 0.40817(2)
Sm5 Sm 0.57839(2) 0.42891(2) 0.59183(2)
H2 H 0.1500 0.1961 0.9740
O12 O 0.2079(2) 0.01603(15) 0.99026(16)
O2 O 0.7921(2) 0.98397(15) 0.00974(16)
O4 O 0.2926(3) 0.81463(17) 0.5775(2)
O5 O 0.1239(3) 0.87394(19) 0.5849(2)
H1 H 0.1198 0.8523 0.6336
C5 C 0.5869(3) 0.9950(2) 0.1000(3)
H6 H 0.5902 0.9606 0.0526
H7 H 0.4168 0.9858 0.1176
C9 C 0.3843(4) 0.9644(3) 0.3713(3)
H8 H 0.4564 0.9621 0.3460
C10 C 0.3568(4) 0.9147(3) 0.4385(4)
H9 H 0.4104 0.8789 0.4580
C11 C 0.2514(4) 0.9171(2) 0.4770(3)
C12 C 0.1731(4) 0.9703(3) 0.4461(3)
H10 H 0.1011 0.9726 0.4715
C14 C 0.2271(4) 0.8629(2) 0.5515(3)
O14 O 0.0238(2) 0.91464(14) 0.04489(18)
O16 O 0.1016(2) 0.95440(14) 0.17276(18)
Sm4 Sm 0.92161(2) 0.92891(2) 0.90817(2)
O9 O 0.9801(3) 0.19593(16) 0.1335(2)
O10 O 0.9172(4) 0.22134(18) 0.2672(2)
N1 N 0.9759(3) 0.18365(19) 0.2164(2)
O15 O 0.9762(2) 0.08536(14) 0.95511(18)
P1_2 P 0.16276(7) 0.58287(5) 0.24862(6)
O1_2 O 0.2502(2) 0.58146(12) 0.32372(16)
O8_2 O 0.4702(2) 0.62806(17) 0.25387(18)
O9_2 O 0.5199(3) 0.69593(16) 0.3665(2)
O10_2 O 0.5828(4) 0.72134(18) 0.2328(2)
O11_2 O 0.3150(3) 0.67825(16) 0.4748(2)
H2_2 H 0.3500 0.6961 0.5260
H3_2 H 0.2432 0.6644 0.4895
N1_2 N 0.5241(3) 0.68365(19) 0.2836(2)
C1_2 C 0.0239(3) 0.56022(19) 0.2905(2)
C6_2 C 0.0172(3) 0.5099(2) 0.3609(3)
H7_2 H 0.0832 0.4858 0.3824
C8_2 C 0.1938(3) 0.51788(19) 0.1590(2)
C9_2 C 0.1157(4) 0.4644(3) 0.1287(3)
H8_2 H 0.0436 0.4621 0.1540
C10_2 C 0.1432(4) 0.4147(3) 0.0615(4)
H9_2 H 0.0896 0.3789 0.0420
C11_2 C 0.2486(4) 0.4171(2) 0.0230(3)
C12_2 C 0.3269(4) 0.4703(3) 0.0539(3)
H10_2 H 0.3989 0.4726 0.0285
C13_2 C 0.3001(4) 0.5198(2) 0.1214(3)
H11_2 H 0.3543 0.5547 0.1419
C15_2 C 0.1500(3) 0.67616(18) 0.2019(2)
C16_2 C 0.1077(3) 0.68981(19) 0.1152(2)
H12_2 H 0.0952 0.6498 0.0755
C17_2 C 0.0839(3) 0.7635(2) 0.0877(2)
H13_2 H 0.0560 0.7727 0.0295
C18_2 C 0.1015(3) 0.82289(18) 0.1465(2)
C19_2 C 0.1482(3) 0.8092(2) 0.2315(2)
H14_2 H 0.1640 0.8495 0.2701
C20_2 C 0.1717(4) 0.7364(2) 0.2597(2)
H15_2 H 0.2020 0.7278 0.3174
C21_2 C 0.0738(3) 0.9023(2) 0.1200(3)
O12_2 O 0.2921(2) 0.51603(15) 0.50974(16)
O13 O 0.6144(2) 0.54114(16) 0.37588(17)
O15_2 O 0.5238(2) 0.58536(14) 0.54489(18)
O2_2 O 0.7079(2) 0.48397(15) 0.49026(16)
C2_2 C 0.9246(3) 0.5948(3) 0.2584(3)
H4_2 H 0.9280 0.6289 0.2107
C3_2 C 0.8204(3) 0.5790(2) 0.2968(3)
H5_2 H 0.7536 0.6013 0.2737
C4_2 C 0.8152(3) 0.5300(2) 0.3698(2)
C5_2 C 0.9131(3) 0.4950(2) 0.4000(3)
H6_2 H 0.9098 0.4606 0.4474
C7_2 C 0.7036(3) 0.5173(2) 0.4153(2)
O9_3 O 0.0199(3) 0.80407(16) 0.8665(2)
O10_3 O 0.0828(4) 0.77866(18) 0.7328(2)
N1_3 N 0.0241(3) 0.81635(19) 0.7836(2)
O13_2 O 0.1144(2) 0.95886(16) 0.87588(17)
O4_2 O 0.7074(3) 0.18537(17) 0.4225(2)
O5_2 O 0.8761(3) 0.12606(19) 0.4151(2)
H1_2 H 0.8802 0.1477 0.3664
C5_3 C 0.4131(3) 0.0050(2) 0.9000(3)
H6_3 H 0.4098 0.0394 0.9474
H7_3 H 0.5832 0.0142 0.8824
C9_3 C 0.6157(4) 0.0356(3) 0.6287(3)
H8_3 H 0.5436 0.0379 0.6540
C10_3 C 0.6432(4) 0.0853(3) 0.5615(4)
H9_3 H 0.5896 0.1211 0.5420
C11_3 C 0.7486(4) 0.0829(2) 0.5230(3)
C12_3 C 0.8269(4) 0.0297(3) 0.5539(3)
H10_3 H 0.8989 0.0274 0.5285
C14_2 C 0.7729(4) 0.1371(2) 0.4485(3)
O16_2 O 0.8984(2) 0.04560(14) 0.82724(18)
H2_3 H 0.8500 0.8039 0.0260
P1_3 P 0.66276(7) 0.91713(5) 0.74862(6)
O1_3 O 0.7502(2) 0.91854(12) 0.82372(16)
O7_2 O 0.6016(2) 0.54560(14) 0.67276(18)
O8_3 O 0.9702(2) 0.87194(17) 0.75387(18)
O11_3 O 0.8150(3) 0.82175(16) 0.9748(2)
H3_3 H 0.7432 0.8356 0.9895
C1_3 C 0.5239(3) 0.93978(19) 0.7905(2)
C2_3 C 0.4246(3) 0.9052(3) 0.7584(3)
H4_3 H 0.4280 0.8711 0.7107
C3_3 C 0.3204(3) 0.9210(2) 0.7968(3)
H5_3 H 0.2536 0.8987 0.7737
C4_3 C 0.3152(3) 0.9700(2) 0.8698(2)
C6_3 C 0.5172(3) 0.9901(2) 0.8609(3)
C7_3 C 0.2036(3) 0.9827(2) 0.9153(2)
C8_3 C 0.6938(3) 0.98212(19) 0.6590(2)
C13_3 C 0.8001(4) 0.9802(2) 0.6214(3)
H11_3 H 0.8543 0.9453 0.6419
C15_3 C 0.6500(3) 0.82384(18) 0.7019(2)
C16_3 C 0.6077(3) 0.81019(19) 0.6152(2)
H12_3 H 0.5952 0.8502 0.5755
C17_3 C 0.5839(3) 0.7365(2) 0.5877(2)
H13_3 H 0.5560 0.7273 0.5295
C18_3 C 0.6015(3) 0.67711(18) 0.6465(2)
C19_3 C 0.6482(3) 0.6908(2) 0.7315(2)
H14_3 H 0.6640 0.6505 0.7701
C20_3 C 0.6717(4) 0.7636(2) 0.7597(2)
H15_3 H 0.7020 0.7722 0.8174
C21_3 C 0.5738(3) 0.5977(2) 0.6200(3)
O3_2 O 0.3856(2) 0.45886(16) 0.62412(17)
C2_4 C 0.0754(3) 0.4052(3) 0.7416(3)
H4_4 H 0.0720 0.3711 0.7893
C3_4 C 0.1796(3) 0.4210(2) 0.7032(3)
H5_4 H 0.2464 0.3987 0.7263
C4_4 C 0.1848(3) 0.4700(2) 0.6302(2)
C5_4 C 0.0869(3) 0.5050(2) 0.6000(3)
H6_4 H 0.0902 0.5394 0.5526
C7_4 C 0.2964(3) 0.4827(2) 0.5847(2)
P1_4 P 0.83724(7) 0.41713(5) 0.75138(6)
O1_4 O 0.7498(2) 0.41854(12) 0.67628(16)
O8_4 O 0.5298(2) 0.37194(17) 0.74613(18)
O9_4 O 0.4801(3) 0.30407(16) 0.6335(2)
O10_4 O 0.4172(4) 0.27866(18) 0.7672(2)
O11_4 O 0.6850(3) 0.32175(16) 0.5252(2)
H2_4 H 0.6500 0.3039 0.4740
H3_4 H 0.7568 0.3356 0.5105
N1_4 N 0.4759(3) 0.31635(19) 0.7164(2)
C1_4 C 0.9761(3) 0.43978(19) 0.7095(2)
C6_4 C 0.9828(3) 0.4901(2) 0.6391(3)
H7_4 H 0.9168 0.5142 0.6176
C8_4 C 0.8062(3) 0.48212(19) 0.8410(2)
C9_4 C 0.8843(4) 0.5356(3) 0.8713(3)
H8_4 H 0.9564 0.5379 0.8460
C10_4 C 0.8568(4) 0.5853(3) 0.9385(4)
H9_4 H 0.9104 0.6211 0.9580
C11_4 C 0.7514(4) 0.5829(2) 0.9770(3)
C12_4 C 0.6731(4) 0.5297(3) 0.9461(3)
H10_4 H 0.6011 0.5274 0.9715
C13_4 C 0.6999(4) 0.4802(2) 0.8786(3)
H11_4 H 0.6457 0.4453 0.8581
C15_4 C 0.8500(3) 0.32384(18) 0.7981(2)
C16_4 C 0.8923(3) 0.31019(19) 0.8848(2)
H12_4 H 0.9048 0.3502 0.9245
C17_4 C 0.9161(3) 0.2365(2) 0.9123(2)
H13_4 H 0.9440 0.2273 0.9705
C18_4 C 0.8985(3) 0.17711(18) 0.8535(2)
C19_4 C 0.8518(3) 0.1908(2) 0.7685(2)
H14_4 H 0.8360 0.1505 0.7299
C20_4 C 0.8283(4) 0.2636(2) 0.7403(2)
H15_4 H 0.7980 0.2722 0.6826
C21_4 C 0.9262(3) 0.0977(2) 0.8800(3)
O4_3 O 0.2074(3) 0.31463(17) 0.9225(2)
O5_3 O 0.3761(3) 0.37394(19) 0.9151(2)
H1_3 H 0.3802 0.3523 0.8664
C14_3 C 0.2729(4) 0.3629(2) 0.9485(3)
O4_4 O 0.7926(3) 0.68537(17) 0.0775(2)
O5_4 O 0.6239(3) 0.62606(19) 0.0849(2)
H1_4 H 0.6198 0.6477 0.1336
C14_4 C 0.7271(4) 0.6371(2) 0.0515(3)
loop_
_geom_bond_atom_site_label_1
_geom_bond_atom_site_label_2
_geom_bond_site_symmetry_1
_geom_bond_site_symmetry_2
Sm2 O1 1_555 1_555
P1 O1 1_555 1_555
O3 C7 1_555 1_555
O6 C21 1_555 1_555
O7 C21 1_555 1_555
O8 Sm2 1_555 1_555
O11 Sm2 1_555 1_555
H3 O11 1_555 1_555
C1 P1 1_555 1_555
C2 C1 1_555 1_555
H4 C2 1_555 1_555
C3 C2 1_555 1_555
H5 C3 1_555 1_555
C4 C3 1_555 1_555
C6 C1 1_555 1_555
C7 C4 1_555 1_555
C8 P1 1_555 1_555
C13 C8 1_555 1_555
H11 C13 1_555 1_555
C15 P1 1_555 1_555
C16 C15 1_555 1_555
H12 C16 1_555 1_555
C17 C16 1_555 1_555
H13 C17 1_555 1_555
C18 C17 1_555 1_555
C19 C18 1_555 1_555
H14 C19 1_555 1_555
C20 C15 1_555 1_555
H15 C20 1_555 1_555
C21 C18 1_555 1_555
Sm3 O6 1_555 1_555
Sm5 O6 1_555 1_555
O7 Sm3 1_555 1_555
C19 C20 1_555 1_555
O4 C14 1_555 1_555
O5 H1 1_555 1_555
H6 C5 1_555 1_555
H8 C9 1_555 1_555
C10 C9 1_555 1_555
H9 C10 1_555 1_555
C11 C10 1_555 1_555
C12 C11 1_555 1_555
H10 C12 1_555 1_555
C14 O5 1_555 1_555
C11 C14 1_555 1_555
O10 N1 1_555 1_555
O9 N1 1_555 1_555
Sm3 O1_2 1_555 1_555
P1_2 O1_2 1_555 1_555
O14 C21_2 1_555 1_555
O16 C21_2 1_555 1_555
O8_2 Sm3 1_555 1_555
O9_2 Sm3 1_555 1_555
O10_2 N1_2 1_555 1_555
O11_2 Sm3 1_555 1_555
H2_2 O11_2 1_555 1_555
H3_2 O11_2 1_555 1_555
N1_2 O8_2 1_555 1_555
C1_2 P1_2 1_555 1_555
C6_2 C1_2 1_555 1_555
H7_2 C6_2 1_555 1_555
C8_2 P1_2 1_555 1_555
C9_2 C8_2 1_555 1_555
H8_2 C9_2 1_555 1_555
C10_2 C9_2 1_555 1_555
H9_2 C10_2 1_555 1_555
C11_2 C10_2 1_555 1_555
C12_2 C11_2 1_555 1_555
H10_2 C12_2 1_555 1_555
C13_2 C8_2 1_555 1_555
H11_2 C13_2 1_555 1_555
C15_2 P1_2 1_555 1_555
C16_2 C15_2 1_555 1_555
H12_2 C16_2 1_555 1_555
C17_2 C16_2 1_555 1_555
H13_2 C17_2 1_555 1_555
C18_2 C17_2 1_555 1_555
C19_2 C18_2 1_555 1_555
H14_2 C19_2 1_555 1_555
C20_2 C15_2 1_555 1_555
H15_2 C20_2 1_555 1_555
C21_2 C18_2 1_555 1_555
O12_2 Sm3 1_555 1_555
O13 Sm3 1_555 1_555
O15_2 Sm3 1_555 1_555
O9_2 N1_2 1_555 1_555
C12_2 C13_2 1_555 1_555
C19_2 C20_2 1_555 1_555
O2_2 C7_2 1_555 1_555
O13 C7_2 1_555 1_555
H4_2 C2_2 1_555 1_555
C3_2 C2_2 1_555 1_555
H5_2 C3_2 1_555 1_555
C4_2 C3_2 1_555 1_555
C5_2 C4_2 1_555 1_555
H6_2 C5_2 1_555 1_555
C7_2 C4_2 1_555 1_555
Sm5 O2_2 1_555 1_555
O10_3 N1_3 1_555 1_555
O9_3 N1_3 1_555 1_555
O4_2 C14_2 1_555 1_555
O5_2 H1_2 1_555 1_555
H6_3 C5_3 1_555 1_555
H8_3 C9_3 1_555 1_555
C10_3 C9_3 1_555 1_555
H9_3 C10_3 1_555 1_555
C11_3 C10_3 1_555 1_555
C12_3 C11_3 1_555 1_555
H10_3 C12_3 1_555 1_555
C14_2 O5_2 1_555 1_555
C11_3 C14_2 1_555 1_555
Sm4 O1_3 1_555 1_555
P1_3 O1_3 1_555 1_555
O13_2 C7_3 1_555 1_555
O15_2 C21_3 1_555 1_555
O7_2 C21_3 1_555 1_555
O8_3 Sm4 1_555 1_555
O11_3 Sm4 1_555 1_555
H3_3 O11_3 1_555 1_555
C1_3 P1_3 1_555 1_555
C2_3 C1_3 1_555 1_555
H4_3 C2_3 1_555 1_555
C3_3 C2_3 1_555 1_555
H5_3 C3_3 1_555 1_555
C4_3 C3_3 1_555 1_555
C6_3 C1_3 1_555 1_555
C7_3 C4_3 1_555 1_555
C8_3 P1_3 1_555 1_555
C13_3 C8_3 1_555 1_555
H11_3 C13_3 1_555 1_555
C15_3 P1_3 1_555 1_555
C16_3 C15_3 1_555 1_555
H12_3 C16_3 1_555 1_555
C17_3 C16_3 1_555 1_555
H13_3 C17_3 1_555 1_555
C18_3 C17_3 1_555 1_555
C19_3 C18_3 1_555 1_555
H14_3 C19_3 1_555 1_555
C20_3 C15_3 1_555 1_555
H15_3 C20_3 1_555 1_555
C21_3 C18_3 1_555 1_555
Sm5 O15_2 1_555 1_555
O7_2 Sm5 1_555 1_555
C19_3 C20_3 1_555 1_555
O12_2 C7_4 1_555 1_555
O3_2 C7_4 1_555 1_555
H4_4 C2_4 1_555 1_555
C3_4 C2_4 1_555 1_555
H5_4 C3_4 1_555 1_555
C4_4 C3_4 1_555 1_555
C5_4 C4_4 1_555 1_555
H6_4 C5_4 1_555 1_555
C7_4 C4_4 1_555 1_555
Sm5 O3_2 1_555 1_555
Sm5 O1_4 1_555 1_555
P1_4 O1_4 1_555 1_555
O15 C21_4 1_555 1_555
O16_2 C21_4 1_555 1_555
O8_4 Sm5 1_555 1_555
O9_4 Sm5 1_555 1_555
O10_4 N1_4 1_555 1_555
O11_4 Sm5 1_555 1_555
H2_4 O11_4 1_555 1_555
H3_4 O11_4 1_555 1_555
N1_4 O8_4 1_555 1_555
C1_4 P1_4 1_555 1_555
C6_4 C1_4 1_555 1_555
H7_4 C6_4 1_555 1_555
C8_4 P1_4 1_555 1_555
C9_4 C8_4 1_555 1_555
H8_4 C9_4 1_555 1_555
C10_4 C9_4 1_555 1_555
H9_4 C10_4 1_555 1_555
C11_4 C10_4 1_555 1_555
C12_4 C11_4 1_555 1_555
H10_4 C12_4 1_555 1_555
C13_4 C8_4 1_555 1_555
H11_4 C13_4 1_555 1_555
C15_4 P1_4 1_555 1_555
C16_4 C15_4 1_555 1_555
H12_4 C16_4 1_555 1_555
C17_4 C16_4 1_555 1_555
H13_4 C17_4 1_555 1_555
C18_4 C17_4 1_555 1_555
C19_4 C18_4 1_555 1_555
H14_4 C19_4 1_555 1_555
C20_4 C15_4 1_555 1_555
H15_4 C20_4 1_555 1_555
C21_4 C18_4 1_555 1_555
O9_4 N1_4 1_555 1_555
C12_4 C13_4 1_555 1_555
C19_4 C20_4 1_555 1_555
O4_3 C14_3 1_555 1_555
O5_3 H1_3 1_555 1_555
C14_3 O5_3 1_555 1_555
O4_4 C14_4 1_555 1_555
O5_4 H1_4 1_555 1_555
C14_4 O5_4 1_555 1_555

#END
