
###############################################################################
#
# This file contains modified crystal structure data generated from the
# MOF subset of the Cambridge Structural Database (CSD) v543 
# hosted by the Cambridge Crystallographic Data Centre (CCDC).
#
# This work is licensed under the Creative Commons
# Attribution-NonCommercial-ShareAlike 4.0 International License.
# To view a copy of this license, visit
# http://creativecommons.org/licenses/by-nc-sa/4.0/
# or send a letter to
# Creative Commons, PO Box 1866, Mountain View, CA 94042, USA.
#
# CIF created using the CSD Python API on 29 September 2022
# The structure has been converted into the P1 space group
# The structure has a 3D framework
# The original CSD entry ZIGZOH is in the monoclinic crystal system
# The framework has been calculated to contain at least 10.0% void space
# The void calculation uses a probe of radius 1.32A, grid spacing 0.4
#
###############################################################################

data_ZIGZOH
_chemical_formula_moiety         '(C16 H12 Fe2 N12 O6)n'
_symmetry_cell_setting           triclinic
_symmetry_space_group_name_H-M   'P 1'
_symmetry_Int_Tables_number      1
_space_group_name_Hall           'P 1'
loop_
_symmetry_equiv_pos_site_id
_symmetry_equiv_pos_as_xyz
1 x,y,z
_cell_length_a                   8.7922(9)
_cell_length_b                   8.9323(9)
_cell_length_c                   8.6926(9)
_cell_angle_alpha                90
_cell_angle_beta                 105.468(2)
_cell_angle_gamma                90
_cell_volume                     657.943
loop_
_atom_site_label
_atom_site_type_symbol
_atom_site_fract_x
_atom_site_fract_y
_atom_site_fract_z
Fe3 Fe 0.00170(16) 0.19562(6) 0.25304(15)
O3 O 0.1400(6) 0.0057(6) 0.1915(6)
C3 C 0.4770(9) 0.4332(9) 0.0060(8)
C4 C 0.3447(9) 0.4274(9) 0.0782(9)
C5 C 0.1511(10) 0.4994(9) 0.1736(11)
H4 H 0.0787 0.5595 0.2056
C6 C 0.2840(10) 0.3082(8) 0.1327(10)
H5 H 0.3202 0.2105 0.1311
C8 C 0.0778(8) 0.0462(8) 0.5557(8)
O2 O 0.1255(5) 0.1569(6) 0.4926(6)
N5 N 0.2586(7) 0.5495(8) 0.1043(8)
H6 H 0.268(7) 0.645(3) 0.081(7)
N6 N 0.1612(9) 0.3504(9) 0.1909(8)
C8_2 C 0.0778(8) 0.9538(8) 0.0557(8)
Fe1 Fe 0.00170(16) 0.80438(6) 0.75304(15)
C1 C 0.7219(11) 0.3198(10) 0.3684(12)
H1 H 0.6907 0.2231 0.3856
C2 C 0.7347(9) 0.5590(9) 0.3588(10)
H2 H 0.7143 0.6604 0.3671
C3_2 C 0.4770(9) 0.5668(9) 0.5060(8)
H3 H 0.5253 0.6548 0.4864
C4_2 C 0.3447(9) 0.5726(9) 0.5782(9)
C5_2 C 0.1511(10) 0.5006(9) 0.6736(11)
H4_2 H 0.0787 0.4405 0.7056
C6_2 C 0.2840(10) 0.6918(8) 0.6327(10)
H5_2 H 0.3202 0.7895 0.6311
O2_2 O 0.1255(5) 0.8431(6) 0.9926(6)
N1 N 0.8384(8) 0.3526(8) 0.3066(8)
N2 N 0.8472(8) 0.5051(8) 0.3016(9)
N3 N 0.6527(8) 0.4477(7) 0.4038(7)
N4 N 0.5251(7) 0.4417(8) 0.4704(8)
N5_2 N 0.2586(7) 0.4505(8) 0.6043(8)
H6_2 H 0.268(7) 0.355(3) 0.581(7)
N6_2 N 0.1612(9) 0.6496(9) 0.6909(8)
O5 O 0.1400(6) 0.9943(6) 0.6915(6)
O4 O 0.8786(6) 0.1446(6) 0.0212(6)
O1 O 0.8610(6) 0.0181(7) 0.3234(5)
C7 C 0.9260(8) 0.0346(9) 0.9573(8)
O1_2 O 0.8610(6) 0.9819(7) 0.8234(5)
O6 O 0.8786(6) 0.8554(6) 0.5212(6)
N7 N 0.8384(8) 0.6474(8) 0.8066(8)
C1_2 C 0.7219(11) 0.6802(10) 0.8684(12)
H1_2 H 0.6907 0.7769 0.8856
C2_2 C 0.7347(9) 0.4410(9) 0.8588(10)
H2_2 H 0.7143 0.3396 0.8671
H3_2 H 0.5253 0.3452 0.9864
N2_2 N 0.8472(8) 0.4949(8) 0.8016(9)
N3_2 N 0.6527(8) 0.5523(7) 0.9038(7)
N4_2 N 0.5251(7) 0.5583(8) 0.9704(8)
C7_2 C 0.9260(8) 0.9654(9) 0.4573(8)
loop_
_geom_bond_atom_site_label_1
_geom_bond_atom_site_label_2
_geom_bond_site_symmetry_1
_geom_bond_site_symmetry_2
Fe3 O3 1_555 1_555
C4 C3 1_555 1_555
C5 H4 1_555 1_555
C6 C4 1_555 1_555
H5 C6 1_555 1_555
C8 O2 1_555 1_555
O2 Fe3 1_555 1_555
N5 C4 1_555 1_555
H6 N5 1_555 1_555
N6 Fe3 1_555 1_555
C5 N5 1_555 1_555
C5 N6 1_555 1_555
C6 N6 1_555 1_555
C1 H1 1_555 1_555
C2 H2 1_555 1_555
C3_2 H3 1_555 1_555
C4_2 C3_2 1_555 1_555
C5_2 H4_2 1_555 1_555
C6_2 C4_2 1_555 1_555
H5_2 C6_2 1_555 1_555
O2_2 Fe1 1_555 1_555
N1 C1 1_555 1_555
N2 C2 1_555 1_555
N3 C1 1_555 1_555
N4 C3_2 1_555 1_555
N5_2 C4_2 1_555 1_555
H6_2 N5_2 1_555 1_555
N6_2 Fe1 1_555 1_555
O5 Fe1 1_555 1_555
C2 N3 1_555 1_555
C5_2 N5_2 1_555 1_555
C5_2 N6_2 1_555 1_555
C6_2 N6_2 1_555 1_555
N1 N2 1_555 1_555
N3 N4 1_555 1_555
C1_2 H1_2 1_555 1_555
C2_2 H2_2 1_555 1_555
N7 C1_2 1_555 1_555
N2_2 C2_2 1_555 1_555
N3_2 C1_2 1_555 1_555
C2_2 N3_2 1_555 1_555
N7 N2_2 1_555 1_555
N3_2 N4_2 1_555 1_555
O6 C7_2 1_555 1_555

#END
