
###############################################################################
#
# This file contains modified crystal structure data generated from the
# MOF subset of the Cambridge Structural Database (CSD) v543 
# hosted by the Cambridge Crystallographic Data Centre (CCDC).
#
# This work is licensed under the Creative Commons
# Attribution-NonCommercial-ShareAlike 4.0 International License.
# To view a copy of this license, visit
# http://creativecommons.org/licenses/by-nc-sa/4.0/
# or send a letter to
# Creative Commons, PO Box 1866, Mountain View, CA 94042, USA.
#
# CIF created using the CSD Python API on 29 September 2022
# The structure has been converted into the P1 space group
# The structure has a 3D framework
# The original CSD entry ZIKXID is in the monoclinic crystal system
# The framework has been calculated to contain at least 10.0% void space
# The void calculation uses a probe of radius 1.32A, grid spacing 0.4
#
###############################################################################

data_ZIKXID
_chemical_formula_moiety         '(C96 H80 Cd8 N8 O38)n'
_symmetry_cell_setting           triclinic
_symmetry_space_group_name_H-M   'P 1'
_symmetry_Int_Tables_number      1
_space_group_name_Hall           'P 1'
loop_
_symmetry_equiv_pos_site_id
_symmetry_equiv_pos_as_xyz
1 x,y,z
_cell_length_a                   12.0490(11)
_cell_length_b                   17.7264(14)
_cell_length_c                   14.0982(13)
_cell_angle_alpha                90
_cell_angle_beta                 106.271(3)
_cell_angle_gamma                90
_cell_volume                     2890.56
loop_
_atom_site_label
_atom_site_type_symbol
_atom_site_fract_x
_atom_site_fract_y
_atom_site_fract_z
O4 O 0.0433(3) 0.2246(3) 0.0316(3)
O9 O 0.0900(3) 0.0442(2) 0.0770(3)
H1 H 0.009291 0.042212 0.071536
H2 H 0.151211 0.028882 0.123356
N3 N 0.2982(3) 0.1616(2) 0.1012(3)
Cd2 Cd 0.14919(3) 0.12867(2) 0.96465(2)
O5 O 0.2301(3) 0.2078(2) 0.8769(3)
O6 O 0.1123(3) 0.18039(18) 0.7285(3)
O7 O 0.3978(3) 0.52551(17) 0.6536(2)
O8 O 0.2244(3) 0.52734(18) 0.5473(3)
C7 C 0.1814(4) 0.2218(3) 0.7885(3)
C8 C 0.2103(4) 0.2959(2) 0.7480(3)
C9 C 0.1226(4) 0.3440(2) 0.6939(3)
H8 H 0.026695 0.316448 0.839067
C15 C 0.1529(4) 0.4077(3) 0.6490(3)
H9 H 0.094026 0.439636 0.610546
C16 C 0.2685(4) 0.4251(3) 0.6598(3)
C17 C 0.2977(4) 0.4968(3) 0.6166(3)
C18 C 0.3547(4) 0.3790(3) 0.7154(3)
H10 H 0.433597 0.391172 0.723463
C19 C 0.3256(4) 0.3146(3) 0.7597(3)
H11 H 0.385026 0.283182 0.798425
Cd3 Cd 0.45058(3) 0.56516(2) 0.82580(3)
Cd4 Cd 0.04942(3) 0.06516(2) 0.67420(3)
Cd6 Cd 0.35081(3) 0.62867(2) 0.53535(2)
O15 O 0.1022(3) 0.02551(17) 0.8464(2)
O16 O 0.2756(3) 0.02734(18) 0.9527(3)
O2 O 0.5148(3) 0.40339(19) 0.0090(2)
C20 C 0.8063(5) 0.2657(3) 0.0249(4)
H12 H 0.837830 0.233490 0.079699
C21 C 0.7108(4) 0.3098(3) 0.0240(4)
H13 H 0.675309 0.305902 0.076045
C23 C 0.1793(6) 0.4131(4) 0.0065(5)
H15 H 0.187417 0.440060 0.068828
H16 H 0.245696 0.379528 0.013455
Cd5 Cd 0.54942(3) 0.43484(2) 0.17420(3)
O1 O 0.5468(3) 0.45972(18) 0.8771(2)
O3 O 0.9630(3) 0.1721(2) 0.8895(3)
O10 O 0.2721(3) 0.5295(2) 0.8346(3)
O11 O 0.6134(3) 0.6123(2) 0.7944(3)
H3 H 0.644778 0.575902 0.773518
H4 H 0.593917 0.643231 0.743395
N1 N 0.7982(3) 0.3384(2) 0.6012(3)
N2 N 0.1745(4) 0.4680(3) 0.9269(4)
C1 C 0.5687(4) 0.4119(3) 0.9453(3)
C2 C 0.6677(4) 0.3595(3) 0.9468(3)
C3 C 0.7186(4) 0.3618(3) 0.8696(3)
H5 H 0.689692 0.396509 0.817129
C4 C 0.8106(4) 0.3150(3) 0.8667(3)
C5 C 0.8573(4) 0.2676(3) 0.9473(3)
C6 C 0.9608(4) 0.2174(3) 0.9563(4)
C10 C 0.9990(4) 0.3334(2) 0.6912(3)
C11 C 0.9107(4) 0.3415(3) 0.6051(3)
H6 H 0.930612 0.349798 0.545333
C12 C 0.7712(4) 0.3268(3) 0.6855(3)
H7 H 0.691787 0.323480 0.683084
C13 C 0.8530(4) 0.3192(2) 0.7769(3)
C14 C 0.9682(4) 0.3221(2) 0.7783(3)
C22 C 0.2662(5) 0.4796(3) 0.8958(4)
H14 H 0.331832 0.448243 0.921208
H17 H 0.107973 0.383295 0.990282
C24 C 0.0775(6) 0.5161(4) 0.8957(6)
H18 H 0.076798 0.539378 0.832457
H19 H 0.081908 0.555543 0.945281
H20 H 0.006624 0.486669 0.887615
Cd7 Cd 0.64919(3) 0.37133(2) 0.46465(2)
O12 O 0.4852(3) 0.59661(19) 0.9910(2)
O13 O 0.3877(3) 0.68039(18) 0.7715(3)
O10_2 O 0.2279(3) 0.0295(2) 0.6654(3)
C24_2 C 0.4225(6) 0.0161(4) 0.6043(6)
H18_2 H 0.423202 0.039378 0.667543
H19_2 H 0.418092 0.055543 0.554719
O12_2 O 0.0148(3) 0.09661(19) 0.5090(2)
O11_2 O 0.8866(3) 0.1123(2) 0.7056(3)
H3_2 H 0.855222 0.075902 0.726482
H4_2 H 0.906083 0.143231 0.756605
Cd7_2 Cd 0.85081(3) 0.87133(2) 0.03535(2)
O1_2 O 0.9532(3) 0.95972(18) 0.6229(2)
O2_2 O 0.9852(3) 0.90339(19) 0.4910(2)
O3_2 O 0.5370(3) 0.6721(2) 0.6105(3)
O4_2 O 0.4567(3) 0.7246(3) 0.4684(3)
O5_2 O 0.2699(3) 0.7078(2) 0.6231(3)
O9_2 O 0.4100(3) 0.5442(2) 0.4230(3)
H1_2 H 0.490709 0.542212 0.428464
H2_2 H 0.348789 0.528882 0.376644
N1_2 N 0.7018(3) 0.8384(2) 0.8988(3)
C1_2 C 0.9313(4) 0.9119(3) 0.5547(3)
C2_2 C 0.8323(4) 0.8595(3) 0.5532(3)
C3_2 C 0.7814(4) 0.8618(3) 0.6304(3)
H5_2 H 0.810308 0.896509 0.682871
C4_2 C 0.6894(4) 0.8150(3) 0.6333(3)
C5_2 C 0.6427(4) 0.7676(3) 0.5527(3)
C6_2 C 0.5392(4) 0.7174(3) 0.5437(4)
C7_2 C 0.3186(4) 0.7218(3) 0.7115(3)
C8_2 C 0.2897(4) 0.7959(2) 0.7520(3)
C9_2 C 0.3774(4) 0.8440(2) 0.8061(3)
C10_2 C 0.5010(4) 0.8334(2) 0.8088(3)
C11_2 C 0.5893(4) 0.8415(3) 0.8949(3)
H6_2 H 0.569388 0.849798 0.954667
C12_2 C 0.7288(4) 0.8268(3) 0.8145(3)
H7_2 H 0.808213 0.823480 0.816916
C13_2 C 0.6470(4) 0.8192(2) 0.7231(3)
C14_2 C 0.5318(4) 0.8221(2) 0.7217(3)
H8_2 H 0.473305 0.816448 0.660933
C15_2 C 0.3471(4) 0.9077(3) 0.8510(3)
H9_2 H 0.405974 0.939636 0.889454
C16_2 C 0.2315(4) 0.9251(3) 0.8402(3)
C17_2 C 0.2023(4) 0.9968(3) 0.8834(3)
C18_2 C 0.1453(4) 0.8790(3) 0.7846(3)
H10_2 H 0.066403 0.891172 0.776537
C19_2 C 0.1744(4) 0.8146(3) 0.7403(3)
H11_2 H 0.114974 0.783182 0.701575
C20_2 C 0.6937(5) 0.7657(3) 0.4751(4)
H12_2 H 0.662170 0.733490 0.420301
C21_2 C 0.7892(4) 0.8098(3) 0.4760(4)
H13_2 H 0.824691 0.805902 0.423955
Cd5_2 Cd 0.95058(3) 0.93484(2) 0.32580(3)
N3_2 N 0.2018(3) 0.6616(2) 0.3988(3)
O1_3 O 0.4532(3) 0.54028(18) 0.1229(2)
O3_3 O 0.0370(3) 0.8279(2) 0.1105(3)
O10_3 O 0.7279(3) 0.4705(2) 0.1654(3)
O11_3 O 0.3866(3) 0.3877(2) 0.2056(3)
H3_3 H 0.355222 0.424098 0.226482
H4_3 H 0.406083 0.356769 0.256605
N2_2 N 0.8255(4) 0.5320(3) 0.0731(4)
C1_3 C 0.4313(4) 0.5881(3) 0.0547(3)
C2_3 C 0.3323(4) 0.6405(3) 0.0532(3)
C3_3 C 0.2814(4) 0.6382(3) 0.1304(3)
H5_3 H 0.310308 0.603491 0.182871
C4_3 C 0.1894(4) 0.6850(3) 0.1333(3)
C5_3 C 0.1427(4) 0.7324(3) 0.0527(3)
C6_3 C 0.0392(4) 0.7826(3) 0.0437(4)
C10_3 C 0.0010(4) 0.6666(2) 0.3088(3)
C11_3 C 0.0893(4) 0.6585(3) 0.3949(3)
H6_3 H 0.069388 0.650202 0.454667
C12_3 C 0.2288(4) 0.6732(3) 0.3145(3)
H7_3 H 0.308213 0.676520 0.316916
C13_3 C 0.1470(4) 0.6808(2) 0.2231(3)
C14_3 C 0.0318(4) 0.6779(2) 0.2217(3)
C22_2 C 0.7338(5) 0.5204(3) 0.1042(4)
H14_2 H 0.668168 0.551757 0.078792
H17_2 H 0.892027 0.616705 0.009718
C24_3 C 0.9225(6) 0.4839(4) 0.1043(6)
H18_3 H 0.923202 0.460622 0.167543
H19_3 H 0.918092 0.444457 0.054719
H20_2 H 0.993376 0.513331 0.112385
O13_2 O 0.6123(3) 0.31961(18) 0.2285(3)
O14 O 0.6022(3) 0.47449(17) 0.3464(2)
C20_3 C 0.1937(5) 0.7343(3) 0.9751(4)
H12_3 H 0.162170 0.766510 0.920301
C21_3 C 0.2892(4) 0.6902(3) 0.9760(4)
H13_3 H 0.324691 0.694098 0.923955
C23_2 C 0.8207(6) 0.5869(4) 0.9935(5)
H15_2 H 0.812583 0.559940 0.931172
H16_2 H 0.754304 0.620472 0.986545
O5_3 O 0.7699(3) 0.7922(2) 0.1231(3)
O6_2 O 0.8877(3) 0.81961(18) 0.2715(3)
O8_2 O 0.7756(3) 0.47266(18) 0.4527(3)
C7_3 C 0.8186(4) 0.7782(3) 0.2115(3)
C8_3 C 0.7897(4) 0.7041(2) 0.2520(3)
C9_3 C 0.8774(4) 0.6560(2) 0.3061(3)
H8_3 H 0.973305 0.683552 0.160933
C15_3 C 0.8471(4) 0.5923(3) 0.3510(3)
H9_3 H 0.905974 0.560364 0.389454
C16_3 C 0.7315(4) 0.5749(3) 0.3402(3)
C17_3 C 0.7023(4) 0.5032(3) 0.3834(3)
C18_3 C 0.6453(4) 0.6210(3) 0.2846(3)
H10_3 H 0.566403 0.608828 0.276537
C19_3 C 0.6744(4) 0.6854(3) 0.2403(3)
H11_3 H 0.614974 0.716818 0.201575
O15_2 O 0.8978(3) 0.97449(17) 0.1536(2)
O16_2 O 0.7244(3) 0.97266(18) 0.0473(3)
O4_3 O 0.9567(3) 0.7754(3) 0.9684(3)
O9_3 O 0.9100(3) 0.9558(2) 0.9230(3)
H1_3 H 0.990709 0.957788 0.928464
H2_3 H 0.848789 0.971118 0.876644
O1_4 O 0.0468(3) 0.04028(18) 0.3771(2)
O3_4 O 0.4630(3) 0.3279(2) 0.3895(3)
O4_4 O 0.5433(3) 0.2754(3) 0.5316(3)
O5_4 O 0.7301(3) 0.2922(2) 0.3769(3)
O9_4 O 0.5900(3) 0.4558(2) 0.5770(3)
H1_4 H 0.509291 0.457788 0.571536
H2_4 H 0.651211 0.471118 0.623356
C1_4 C 0.0687(4) 0.0881(3) 0.4453(3)
C2_4 C 0.1677(4) 0.1405(3) 0.4468(3)
C3_4 C 0.2186(4) 0.1382(3) 0.3696(3)
H5_4 H 0.189692 0.103491 0.317129
C4_4 C 0.3106(4) 0.1850(3) 0.3667(3)
C5_4 C 0.3573(4) 0.2324(3) 0.4473(3)
C6_4 C 0.4608(4) 0.2826(3) 0.4563(4)
C7_4 C 0.6814(4) 0.2782(3) 0.2885(3)
C8_4 C 0.7103(4) 0.2041(2) 0.2480(3)
C9_4 C 0.6226(4) 0.1560(2) 0.1939(3)
C10_4 C 0.4990(4) 0.1666(2) 0.1912(3)
C11_4 C 0.4107(4) 0.1585(3) 0.1051(3)
H6_4 H 0.430612 0.150202 0.045333
C12_4 C 0.2712(4) 0.1732(3) 0.1855(3)
H7_4 H 0.191787 0.176520 0.183084
C13_4 C 0.3530(4) 0.1808(2) 0.2769(3)
C14_4 C 0.4682(4) 0.1779(2) 0.2783(3)
H8_4 H 0.526695 0.183552 0.339067
C15_4 C 0.6529(4) 0.0923(3) 0.1490(3)
H9_4 H 0.594026 0.060364 0.110546
C16_4 C 0.7685(4) 0.0749(3) 0.1598(3)
C17_4 C 0.7977(4) 0.0032(3) 0.1166(3)
C18_4 C 0.8547(4) 0.1210(3) 0.2154(3)
H10_4 H 0.933597 0.108828 0.223463
C19_4 C 0.8256(4) 0.1854(3) 0.2597(3)
H11_4 H 0.885026 0.216818 0.298425
C20_4 C 0.3063(5) 0.2343(3) 0.5249(4)
H12_4 H 0.337830 0.266510 0.579699
C21_4 C 0.2108(4) 0.1902(3) 0.5240(4)
H13_4 H 0.175309 0.194098 0.576045
O11_4 O 0.1134(3) 0.8877(2) 0.2944(3)
H3_4 H 0.144778 0.924098 0.273518
H4_4 H 0.093917 0.856769 0.243395
O10_4 O 0.7721(3) 0.9705(2) 0.3346(3)
C24_4 C 0.5775(6) 0.9839(4) 0.3957(6)
H18_4 H 0.576798 0.960622 0.332457
H19_4 H 0.581908 0.944457 0.445281
N2_3 N 0.3255(4) 0.9680(3) 0.5731(4)
C22_3 C 0.2338(5) 0.9796(3) 0.6042(4)
H14_3 H 0.168168 0.948243 0.578792
C23_3 C 0.3207(6) 0.9131(4) 0.4935(5)
H15_3 H 0.312583 0.940060 0.431172
H16_3 H 0.254304 0.879528 0.486545
H17_3 H 0.392027 0.883295 0.509718
H20_3 H 0.493376 0.986669 0.612385
N2_4 N 0.6745(4) 0.0320(3) 0.4269(4)
C22_4 C 0.7662(5) 0.0204(3) 0.3958(4)
H14_4 H 0.831832 0.051757 0.421208
C23_4 C 0.6793(6) 0.0869(4) 0.5065(5)
H15_4 H 0.687417 0.059940 0.568828
H16_4 H 0.745696 0.120472 0.513455
H17_4 H 0.607973 0.116705 0.490282
H20_4 H 0.506624 0.013331 0.387615
loop_
_geom_bond_atom_site_label_1
_geom_bond_atom_site_label_2
_geom_bond_site_symmetry_1
_geom_bond_site_symmetry_2
H1 O9 1_555 1_555
H2 O9 1_555 1_555
O5 Cd2 1_555 1_555
O6 C7 1_555 1_555
O7 C17 1_555 1_555
O8 C17 1_555 1_555
C7 O5 1_555 1_555
C8 C7 1_555 1_555
C9 C8 1_555 1_555
C15 C9 1_555 1_555
H9 C15 1_555 1_555
C16 C15 1_555 1_555
C17 C16 1_555 1_555
C18 C16 1_555 1_555
H10 C18 1_555 1_555
C19 C8 1_555 1_555
H11 C19 1_555 1_555
Cd3 O7 1_555 1_555
Cd4 O6 1_555 1_555
Cd6 O7 1_555 1_555
O15 Cd2 1_555 1_555
O16 Cd2 1_555 1_555
O8 Cd6 1_555 1_555
C18 C19 1_555 1_555
Cd4 O15 1_555 1_555
H12 C20 1_555 1_555
H13 C21 1_555 1_555
H15 C23 1_555 1_555
H16 C23 1_555 1_555
Cd5 O2 1_555 1_555
C20 C21 1_555 1_555
Cd3 O1 1_555 1_555
O1 C1 1_555 1_555
O3 C6 1_555 1_555
O10 Cd3 1_555 1_555
O11 Cd3 1_555 1_555
H3 O11 1_555 1_555
H4 O11 1_555 1_555
N1 C11 1_555 1_555
N2 C22 1_555 1_555
C1 C2 1_555 1_555
C2 C3 1_555 1_555
C3 H5 1_555 1_555
C4 C3 1_555 1_555
C5 C4 1_555 1_555
C11 C10 1_555 1_555
H6 C11 1_555 1_555
C12 N1 1_555 1_555
H7 C12 1_555 1_555
C13 C4 1_555 1_555
C14 C10 1_555 1_555
C22 O10 1_555 1_555
H14 C22 1_555 1_555
C24 N2 1_555 1_555
H18 C24 1_555 1_555
H19 C24 1_555 1_555
H20 C24 1_555 1_555
Cd7 N1 1_555 1_555
O12 Cd3 1_555 1_555
O13 Cd3 1_555 1_555
C5 C6 1_555 1_555
C12 C13 1_555 1_555
C13 C14 1_555 1_555
O10_2 Cd4 1_555 1_555
H18_2 C24_2 1_555 1_555
H19_2 C24_2 1_555 1_555
O12_2 Cd4 1_555 1_555
H3_2 O11_2 1_555 1_555
H4_2 O11_2 1_555 1_555
Cd6 O3_2 1_555 1_555
O1_2 C1_2 1_555 1_555
O2_2 C1_2 1_555 1_555
O3_2 C6_2 1_555 1_555
O4_2 Cd6 1_555 1_555
O5_2 Cd6 1_555 1_555
O13 C7_2 1_555 1_555
O9_2 Cd6 1_555 1_555
H1_2 O9_2 1_555 1_555
H2_2 O9_2 1_555 1_555
N1_2 C11_2 1_555 1_555
C1_2 C2_2 1_555 1_555
C2_2 C3_2 1_555 1_555
C3_2 H5_2 1_555 1_555
C4_2 C3_2 1_555 1_555
C5_2 C4_2 1_555 1_555
C6_2 O4_2 1_555 1_555
C7_2 O5_2 1_555 1_555
C8_2 C7_2 1_555 1_555
C9_2 C8_2 1_555 1_555
C10_2 C9_2 1_555 1_555
C11_2 C10_2 1_555 1_555
H6_2 C11_2 1_555 1_555
C12_2 N1_2 1_555 1_555
H7_2 C12_2 1_555 1_555
C13_2 C4_2 1_555 1_555
C14_2 C10_2 1_555 1_555
H8_2 C14_2 1_555 1_555
C15_2 C9_2 1_555 1_555
H9_2 C15_2 1_555 1_555
C16_2 C15_2 1_555 1_555
C17_2 C16_2 1_555 1_555
C18_2 C16_2 1_555 1_555
H10_2 C18_2 1_555 1_555
C19_2 C8_2 1_555 1_555
H11_2 C19_2 1_555 1_555
C20_2 C5_2 1_555 1_555
H12_2 C20_2 1_555 1_555
C21_2 C2_2 1_555 1_555
H13_2 C21_2 1_555 1_555
Cd5_2 O2_2 1_555 1_555
N3_2 Cd6 1_555 1_555
C5_2 C6_2 1_555 1_555
C12_2 C13_2 1_555 1_555
C13_2 C14_2 1_555 1_555
C18_2 C19_2 1_555 1_555
C20_2 C21_2 1_555 1_555
Cd5 O1_3 1_555 1_555
O1_3 C1_3 1_555 1_555
O3_3 C6_3 1_555 1_555
O10_3 Cd5 1_555 1_555
O11_3 Cd5 1_555 1_555
H3_3 O11_3 1_555 1_555
H4_3 O11_3 1_555 1_555
N3_2 C11_3 1_555 1_555
N2_2 C22_2 1_555 1_555
C1_3 C2_3 1_555 1_555
C2_3 C3_3 1_555 1_555
C3_3 H5_3 1_555 1_555
C4_3 C3_3 1_555 1_555
C5_3 C4_3 1_555 1_555
C11_3 C10_3 1_555 1_555
H6_3 C11_3 1_555 1_555
C12_3 N3_2 1_555 1_555
H7_3 C12_3 1_555 1_555
C13_3 C4_3 1_555 1_555
C14_3 C10_3 1_555 1_555
C22_2 O10_3 1_555 1_555
H14_2 C22_2 1_555 1_555
C24_3 N2_2 1_555 1_555
H18_3 C24_3 1_555 1_555
H19_3 C24_3 1_555 1_555
H20_2 C24_3 1_555 1_555
O13_2 Cd5 1_555 1_555
O14 Cd5 1_555 1_555
C5_3 C6_3 1_555 1_555
C12_3 C13_3 1_555 1_555
C13_3 C14_3 1_555 1_555
H12_3 C20_3 1_555 1_555
H13_3 C21_3 1_555 1_555
H15_2 C23_2 1_555 1_555
H16_2 C23_2 1_555 1_555
C20_3 C21_3 1_555 1_555
O5_3 Cd7_2 1_555 1_555
O6_2 C7_3 1_555 1_555
O14 C17_3 1_555 1_555
O8_2 C17_3 1_555 1_555
C7_3 O5_3 1_555 1_555
C8_3 C7_3 1_555 1_555
C9_3 C8_3 1_555 1_555
C15_3 C9_3 1_555 1_555
H9_3 C15_3 1_555 1_555
C16_3 C15_3 1_555 1_555
C17_3 C16_3 1_555 1_555
C18_3 C16_3 1_555 1_555
H10_3 C18_3 1_555 1_555
C19_3 C8_3 1_555 1_555
H11_3 C19_3 1_555 1_555
Cd5_2 O6_2 1_555 1_555
Cd7 O14 1_555 1_555
O15_2 Cd7_2 1_555 1_555
O16_2 Cd7_2 1_555 1_555
O8_2 Cd7 1_555 1_555
C18_3 C19_3 1_555 1_555
Cd5_2 O15_2 1_555 1_555
H1_3 O9_3 1_555 1_555
H2_3 O9_3 1_555 1_555
Cd7 O3_4 1_555 1_555
O1_4 C1_4 1_555 1_555
O12_2 C1_4 1_555 1_555
O3_4 C6_4 1_555 1_555
O4_4 Cd7 1_555 1_555
O5_4 Cd7 1_555 1_555
O13_2 C7_4 1_555 1_555
O9_4 Cd7 1_555 1_555
H1_4 O9_4 1_555 1_555
H2_4 O9_4 1_555 1_555
N3 C11_4 1_555 1_555
C1_4 C2_4 1_555 1_555
C2_4 C3_4 1_555 1_555
C3_4 H5_4 1_555 1_555
C4_4 C3_4 1_555 1_555
C5_4 C4_4 1_555 1_555
C6_4 O4_4 1_555 1_555
C7_4 O5_4 1_555 1_555
C8_4 C7_4 1_555 1_555
C9_4 C8_4 1_555 1_555
C10_4 C9_4 1_555 1_555
C11_4 C10_4 1_555 1_555
H6_4 C11_4 1_555 1_555
C12_4 N3 1_555 1_555
H7_4 C12_4 1_555 1_555
C13_4 C4_4 1_555 1_555
C14_4 C10_4 1_555 1_555
H8_4 C14_4 1_555 1_555
C15_4 C9_4 1_555 1_555
H9_4 C15_4 1_555 1_555
C16_4 C15_4 1_555 1_555
C17_4 C16_4 1_555 1_555
C18_4 C16_4 1_555 1_555
H10_4 C18_4 1_555 1_555
C19_4 C8_4 1_555 1_555
H11_4 C19_4 1_555 1_555
C20_4 C5_4 1_555 1_555
H12_4 C20_4 1_555 1_555
C21_4 C2_4 1_555 1_555
H13_4 C21_4 1_555 1_555
C5_4 C6_4 1_555 1_555
C12_4 C13_4 1_555 1_555
C13_4 C14_4 1_555 1_555
C18_4 C19_4 1_555 1_555
C20_4 C21_4 1_555 1_555
H3_4 O11_4 1_555 1_555
H4_4 O11_4 1_555 1_555
O10_4 Cd5_2 1_555 1_555
H18_4 C24_4 1_555 1_555
H19_4 C24_4 1_555 1_555
N2_3 C22_3 1_555 1_555
H14_3 C22_3 1_555 1_555
C23_3 N2_3 1_555 1_555
H15_3 C23_3 1_555 1_555
H16_3 C23_3 1_555 1_555
H17_3 C23_3 1_555 1_555
N2_4 C22_4 1_555 1_555
H14_4 C22_4 1_555 1_555
C23_4 N2_4 1_555 1_555
H15_4 C23_4 1_555 1_555
H16_4 C23_4 1_555 1_555
H17_4 C23_4 1_555 1_555

#END
