
###############################################################################
#
# This file contains modified crystal structure data generated from the
# MOF subset of the Cambridge Structural Database (CSD) v543 
# hosted by the Cambridge Crystallographic Data Centre (CCDC).
#
# This work is licensed under the Creative Commons
# Attribution-NonCommercial-ShareAlike 4.0 International License.
# To view a copy of this license, visit
# http://creativecommons.org/licenses/by-nc-sa/4.0/
# or send a letter to
# Creative Commons, PO Box 1866, Mountain View, CA 94042, USA.
#
# CIF created using the CSD Python API on 29 September 2022
# The structure has been converted into the P1 space group
# The structure has a 3D framework
# The original CSD entry ZIMTUN is in the monoclinic crystal system
# The framework has been calculated to contain at least 10.0% void space
# The void calculation uses a probe of radius 1.32A, grid spacing 0.4
#
###############################################################################

data_ZIMTUN
_chemical_formula_moiety         '(C112 H72 Co8 N32 O38)n'
_symmetry_cell_setting           triclinic
_symmetry_space_group_name_H-M   'P 1'
_symmetry_Int_Tables_number      1
_space_group_name_Hall           'P 1'
loop_
_symmetry_equiv_pos_site_id
_symmetry_equiv_pos_as_xyz
1 x,y,z
_cell_length_a                   21.301(3)
_cell_length_b                   13.415(3)
_cell_length_c                   13.6685(19)
_cell_angle_alpha                90
_cell_angle_beta                 118.065(15)
_cell_angle_gamma                90
_cell_volume                     3446.55
loop_
_atom_site_label
_atom_site_type_symbol
_atom_site_fract_x
_atom_site_fract_y
_atom_site_fract_z
Co8 Co 0.017803(18) 0.72944(3) 0.39533(3)
H18 H 0.0254 0.8520 0.6065
Co1 Co 0.482197(18) 0.22944(3) 0.10467(3)
O1 O 0.39244(11) 0.32158(18) 0.00971(17)
O2 O 0.5000 0.3112(2) 0.2500
N1 N 0.54088(14) 0.3331(2) 0.0594(2)
O3 O 0.41466(12) 0.13731(19) 0.13704(17)
O4 O 0.57542(11) 0.15008(18) 0.19251(17)
H1 H 0.4619 0.3381 0.2165
C1 C 0.39511(15) 0.1218(2) 0.2081(2)
C2 C 0.32616(15) 0.0647(2) 0.1699(2)
C3 C 0.26615(15) 0.1031(2) 0.0815(2)
C5 C 0.19868(15) 0.0621(2) 0.0435(2)
H2 H 0.2711 0.1591 0.0456
H10 H 0.5381 0.3381 0.2835
Co2 Co 0.517803(18) 0.22944(3) 0.39533(3)
C15 C 0.60489(15) 0.1218(2) 0.2919(2)
O6 O 0.60756(11) 0.32158(18) 0.49029(17)
N5 N 0.45912(14) 0.3331(2) 0.4406(2)
O7 O 0.58534(12) 0.13731(19) 0.36296(17)
O8 O 0.42458(11) 0.15008(18) 0.30749(17)
N6 N 0.54836(12) 0.1455(2) 0.5397(2)
C16 C 0.67384(15) 0.0647(2) 0.3301(2)
C17 C 0.73385(15) 0.1031(2) 0.4185(2)
H11 H 0.7289 0.1591 0.4544
C19 C 0.80132(15) 0.0621(2) 0.4565(2)
C21 C 0.86271(15) 0.1183(2) 0.5444(3)
O10 O 0.89244(11) 0.17842(18) 0.50971(17)
O11 O 0.87821(13) 0.1025(2) 0.64265(18)
Co5 Co 0.982197(18) 0.27056(3) 0.60467(3)
N2 N 0.45164(12) 0.1455(2) 0.9603(2)
C7 C 0.13729(15) 0.1183(2) 0.9556(3)
O5 O 0.12179(13) 0.1025(2) 0.85735(18)
O9 O 0.10756(11) 0.17842(18) 0.99029(17)
Co3 Co 0.017803(18) 0.27056(3) 0.89533(3)
C4 C 0.31875(15) 0.9782(2) 0.2180(2)
C6 C 0.25324(15) 0.9315(2) 0.1790(2)
N3 N 0.38030(12) 0.9316(2) 0.3050(2)
C8 C 0.19300(14) 0.9744(2) 0.0931(2)
H3 H 0.2496 0.8716 0.2101
C9 C 0.44434(18) 0.9191(4) 0.3054(3)
C10 C 0.38753(16) 0.8925(2) 0.4000(3)
N4 N 0.12529(12) 0.9256(2) 0.0560(2)
H4 H 0.4561 0.9393 0.2509
C11 C 0.48694(18) 0.8715(3) 0.4012(3)
H5 H 0.3518 0.8922 0.4209
C13 C 0.10513(16) 0.8706(2) 0.1187(3)
H6 H 0.5338 0.8531 0.4235
H8 H 0.1330 0.8603 0.1945
C18 C 0.68125(15) 0.9782(2) 0.2820(2)
N7 N 0.61970(12) 0.9316(2) 0.1950(2)
C20 C 0.74676(15) 0.9315(2) 0.3210(2)
C22 C 0.80700(14) 0.9744(2) 0.4069(2)
C23 C 0.55566(18) 0.9191(4) 0.1946(3)
C24 C 0.61247(16) 0.8925(2) 0.1000(3)
H12 H 0.7504 0.8716 0.2899
N8 N 0.45164(12) 0.8545(2) 0.4603(2)
N9 N 0.87471(12) 0.9256(2) 0.4440(2)
H13 H 0.5439 0.9393 0.2491
C25 C 0.51306(18) 0.8715(3) 0.0988(3)
N10 N 0.54836(12) 0.8545(2) 0.0397(2)
H14 H 0.6482 0.8922 0.0791
Co4 Co 0.482197(18) 0.77056(3) 0.60467(3)
C26 C 0.89487(16) 0.8706(2) 0.3813(3)
C27 C 0.93001(18) 0.9223(3) 0.5514(3)
H15 H 0.4662 0.8531 0.0765
N11 N 0.04088(14) 0.8331(2) 0.0594(2)
N12 N 0.95912(14) 0.8331(2) 0.4406(2)
H16 H 0.8670 0.8603 0.3055
C28 C 0.98139(18) 0.8661(3) 0.5465(3)
H17 H 0.9316 0.9523 0.6139
C12 C 0.06999(18) 0.9223(3) 0.9486(3)
C14 C 0.01861(18) 0.8661(3) 0.9535(3)
H7 H 0.0684 0.9523 0.8861
Co6 Co 0.517803(18) 0.77056(3) 0.89533(3)
Co7 Co 0.982197(18) 0.72944(3) 0.10467(3)
O2_2 O -0.0000 0.8112(2) 0.2500
O4_2 O 0.07542(11) 0.65008(18) 0.19251(17)
H6_2 H 0.0338 0.3531 0.4235
H10_2 H 0.0381 0.8381 0.2835
C15_2 C 0.10489(15) 0.6218(2) 0.2919(2)
O6_2 O 0.10756(11) 0.82158(18) 0.49029(17)
O7_2 O 0.08534(12) 0.63731(19) 0.36296(17)
N6_2 N 0.04836(12) 0.6455(2) 0.5397(2)
C16_2 C 0.17384(15) 0.5647(2) 0.3301(2)
C17_2 C 0.23385(15) 0.6031(2) 0.4185(2)
C18_2 C 0.18125(15) 0.4782(2) 0.2820(2)
H11_2 H 0.2289 0.6591 0.4544
C19_2 C 0.30132(15) 0.5621(2) 0.4565(2)
N7_2 N 0.11970(12) 0.4316(2) 0.1950(2)
C20_2 C 0.24676(15) 0.4315(2) 0.3210(2)
C21_2 C 0.36271(15) 0.6183(2) 0.5444(3)
C22_2 C 0.30700(14) 0.4744(2) 0.4069(2)
C23_2 C 0.05566(18) 0.4191(4) 0.1946(3)
C24_2 C 0.11247(16) 0.3925(2) 0.1000(3)
H12_2 H 0.2504 0.3716 0.2899
O10_2 O 0.39244(11) 0.67842(18) 0.50971(17)
O11_2 O 0.37821(13) 0.6025(2) 0.64265(18)
N9_2 N 0.37471(12) 0.4256(2) 0.4440(2)
H13_2 H 0.0439 0.4393 0.2491
C25_2 C 0.01306(18) 0.3715(3) 0.0988(3)
N10_2 N 0.04836(12) 0.3545(2) 0.0397(2)
H14_2 H 0.1482 0.3922 0.0791
C26_2 C 0.39487(16) 0.3706(2) 0.3813(3)
C27_2 C 0.43001(18) 0.4223(3) 0.5514(3)
H16_2 H 0.3670 0.3603 0.3055
C28_2 C 0.48139(18) 0.3661(3) 0.5465(3)
H17_2 H 0.4316 0.4523 0.6139
H18_2 H 0.5254 0.3520 0.6065
O1_2 O 0.89244(11) 0.82158(18) 0.00971(17)
O2_3 O 1.0000 0.8112(2) 0.2500
O3_2 O 0.91466(12) 0.63731(19) 0.13704(17)
H1_2 H 0.9619 0.8381 0.2165
C1_2 C 0.89511(15) 0.6218(2) 0.2081(2)
C2_2 C 0.82616(15) 0.5647(2) 0.1699(2)
C3_2 C 0.76615(15) 0.6031(2) 0.0815(2)
C4_2 C 0.81875(15) 0.4782(2) 0.2180(2)
C5_2 C 0.69868(15) 0.5621(2) 0.0435(2)
H2_2 H 0.7711 0.6591 0.0456
C6_2 C 0.75324(15) 0.4315(2) 0.1790(2)
N3_2 N 0.88030(12) 0.4316(2) 0.3050(2)
C8_2 C 0.69300(14) 0.4744(2) 0.0931(2)
H3_2 H 0.7496 0.3716 0.2101
C9_2 C 0.94434(18) 0.4191(4) 0.3054(3)
C10_2 C 0.88753(16) 0.3925(2) 0.4000(3)
N4_2 N 0.62529(12) 0.4256(2) 0.0560(2)
H4_2 H 0.9561 0.4393 0.2509
C11_2 C 0.98694(18) 0.3715(3) 0.4012(3)
H5_2 H 0.8518 0.3922 0.4209
C13_2 C 0.60513(16) 0.3706(2) 0.1187(3)
H8_2 H 0.6330 0.3603 0.1945
O8_2 O 0.92458(11) 0.65008(18) 0.30749(17)
N8_2 N 0.95164(12) 0.3545(2) 0.4603(2)
H15_2 H 0.9662 0.3531 0.0765
N2_2 N 0.95164(12) 0.6455(2) 0.9603(2)
C7_2 C 0.63729(15) 0.6183(2) 0.9556(3)
O5_2 O 0.62179(13) 0.6025(2) 0.85735(18)
C12_2 C 0.56999(18) 0.4223(3) 0.9486(3)
C14_2 C 0.51861(18) 0.3661(3) 0.9535(3)
H7_2 H 0.5684 0.4523 0.8861
H9 H 0.4746 0.3520 0.8935
O9_2 O 0.60756(11) 0.67842(18) 0.99029(17)
C12_3 C 0.93001(18) 0.0777(3) 0.0514(3)
C14_3 C 0.98139(18) 0.1339(3) 0.0465(3)
H7_3 H 0.9316 0.0477 0.1139
C4_3 C 0.68125(15) 0.0218(2) 0.7820(2)
C6_3 C 0.74676(15) 0.0685(2) 0.8210(2)
N3_3 N 0.61970(12) 0.0684(2) 0.6950(2)
C8_3 C 0.80700(14) 0.0256(2) 0.9069(2)
H3_3 H 0.7504 0.1284 0.7899
C9_3 C 0.55566(18) 0.0809(4) 0.6946(3)
C10_3 C 0.61247(16) 0.1075(2) 0.6000(3)
N4_3 N 0.87471(12) 0.0744(2) 0.9440(2)
H4_3 H 0.5439 0.0607 0.7491
C11_3 C 0.51306(18) 0.1285(3) 0.5988(3)
H5_3 H 0.6482 0.1078 0.5791
C13_3 C 0.89487(16) 0.1294(2) 0.8813(3)
H6_3 H 0.4662 0.1469 0.5765
H8_3 H 0.8670 0.1397 0.8055
C18_3 C 0.31875(15) 0.0218(2) 0.7180(2)
N7_3 N 0.38030(12) 0.0684(2) 0.8050(2)
C20_3 C 0.25324(15) 0.0685(2) 0.6790(2)
C22_3 C 0.19300(14) 0.0256(2) 0.5931(2)
C23_3 C 0.44434(18) 0.0809(4) 0.8054(3)
C24_3 C 0.38753(16) 0.1075(2) 0.9000(3)
H12_3 H 0.2496 0.1284 0.7101
N9_3 N 0.12529(12) 0.0744(2) 0.5560(2)
H13_3 H 0.4561 0.0607 0.7509
C25_3 C 0.48694(18) 0.1285(3) 0.9012(3)
H14_3 H 0.3518 0.1078 0.9209
C26_3 C 0.10513(16) 0.1294(2) 0.6187(3)
C27_3 C 0.06999(18) 0.0777(3) 0.4486(3)
H15_3 H 0.5338 0.1469 0.9235
N11_2 N 0.95912(14) 0.1669(2) 0.9406(2)
N12_2 N 0.04088(14) 0.1669(2) 0.5594(2)
H16_3 H 0.1330 0.1397 0.6945
C28_3 C 0.01861(18) 0.1339(3) 0.4535(3)
H17_3 H 0.0684 0.0477 0.3861
C7_3 C 0.86271(15) 0.8817(2) 0.0444(3)
O5_3 O 0.87821(13) 0.8975(2) 0.14265(18)
O2_4 O 0.5000 0.6888(2) 0.7500
N1_2 N 0.45912(14) 0.6669(2) 0.9406(2)
O3_3 O 0.58534(12) 0.86269(19) 0.86296(17)
O4_3 O 0.42458(11) 0.84992(18) 0.80749(17)
H1_3 H 0.5381 0.6619 0.7835
C1_3 C 0.60489(15) 0.8782(2) 0.7919(2)
C2_3 C 0.67384(15) 0.9353(2) 0.8301(2)
C3_3 C 0.73385(15) 0.8969(2) 0.9185(2)
C5_3 C 0.80132(15) 0.9379(2) 0.9565(2)
H2_3 H 0.7289 0.8409 0.9544
H10_3 H 0.4619 0.6619 0.7165
C15_3 C 0.39511(15) 0.8782(2) 0.7081(2)
N5_2 N 0.54088(14) 0.6669(2) 0.5594(2)
O7_3 O 0.41466(12) 0.86269(19) 0.63704(17)
O8_3 O 0.57542(11) 0.84992(18) 0.69251(17)
C16_3 C 0.32616(15) 0.9353(2) 0.6699(2)
C17_3 C 0.26615(15) 0.8969(2) 0.5815(2)
H11_3 H 0.2711 0.8409 0.5456
C19_3 C 0.19868(15) 0.9379(2) 0.5435(2)
C21_3 C 0.13729(15) 0.8817(2) 0.4556(3)
O11_3 O 0.12179(13) 0.8975(2) 0.35735(18)
H18_3 H 0.9746 0.1480 0.3935
C7_4 C 0.36271(15) 0.3817(2) 0.0444(3)
O5_4 O 0.37821(13) 0.3975(2) 0.14265(18)
C12_4 C 0.43001(18) 0.5777(3) 0.0514(3)
C14_4 C 0.48139(18) 0.6339(3) 0.0465(3)
H7_4 H 0.4316 0.5477 0.1139
H9_2 H 0.5254 0.6480 0.1065
O2_5 O 0.0000 0.1888(2) 0.7500
O3_4 O 0.08534(12) 0.36269(19) 0.86296(17)
H1_4 H 0.0381 0.1619 0.7835
C1_4 C 0.10489(15) 0.3782(2) 0.7919(2)
C2_4 C 0.17384(15) 0.4353(2) 0.8301(2)
C3_4 C 0.23385(15) 0.3969(2) 0.9185(2)
C4_4 C 0.18125(15) 0.5218(2) 0.7820(2)
C5_4 C 0.30132(15) 0.4379(2) 0.9565(2)
H2_4 H 0.2289 0.3409 0.9544
C6_4 C 0.24676(15) 0.5685(2) 0.8210(2)
N3_4 N 0.11970(12) 0.5684(2) 0.6950(2)
C8_4 C 0.30700(14) 0.5256(2) 0.9069(2)
H3_4 H 0.2504 0.6284 0.7899
C9_4 C 0.05566(18) 0.5809(4) 0.6946(3)
C10_4 C 0.11247(16) 0.6075(2) 0.6000(3)
N4_4 N 0.37471(12) 0.5744(2) 0.9440(2)
H4_4 H 0.0439 0.5607 0.7491
C11_4 C 0.01306(18) 0.6285(3) 0.5988(3)
H5_4 H 0.1482 0.6078 0.5791
C13_4 C 0.39487(16) 0.6294(2) 0.8813(3)
H8_4 H 0.3670 0.6397 0.8055
O8_4 O 0.07542(11) 0.34992(18) 0.69251(17)
H15_4 H 0.0338 0.6469 0.9235
O2_6 O 1.0000 0.1888(2) 0.7500
O4_4 O 0.92458(11) 0.34992(18) 0.80749(17)
H6_4 H 0.9662 0.6469 0.5765
H10_4 H 0.9619 0.1619 0.7165
C15_4 C 0.89511(15) 0.3782(2) 0.7081(2)
O7_4 O 0.91466(12) 0.36269(19) 0.63704(17)
C16_4 C 0.82616(15) 0.4353(2) 0.6699(2)
C17_4 C 0.76615(15) 0.3969(2) 0.5815(2)
C18_4 C 0.81875(15) 0.5218(2) 0.7180(2)
H11_4 H 0.7711 0.3409 0.5456
C19_4 C 0.69868(15) 0.4379(2) 0.5435(2)
N7_4 N 0.88030(12) 0.5684(2) 0.8050(2)
C20_4 C 0.75324(15) 0.5685(2) 0.6790(2)
C21_4 C 0.63729(15) 0.3817(2) 0.4556(3)
C22_4 C 0.69300(14) 0.5256(2) 0.5931(2)
C23_4 C 0.94434(18) 0.5809(4) 0.8054(3)
C24_4 C 0.88753(16) 0.6075(2) 0.9000(3)
H12_4 H 0.7496 0.6284 0.7101
O11_4 O 0.62179(13) 0.3975(2) 0.35735(18)
N9_4 N 0.62529(12) 0.5744(2) 0.5560(2)
H13_4 H 0.9561 0.5607 0.7509
C25_4 C 0.98694(18) 0.6285(3) 0.9012(3)
H14_4 H 0.8518 0.6078 0.9209
C26_4 C 0.60513(16) 0.6294(2) 0.6187(3)
C27_4 C 0.56999(18) 0.5777(3) 0.4486(3)
H16_4 H 0.6330 0.6397 0.6945
C28_4 C 0.51861(18) 0.6339(3) 0.4535(3)
H17_4 H 0.5684 0.5477 0.3861
H18_4 H 0.4746 0.6480 0.3935
H9_3 H 0.9746 0.8520 0.8935
H9_4 H 0.0254 0.1480 0.1065
loop_
_geom_bond_atom_site_label_1
_geom_bond_atom_site_label_2
_geom_bond_site_symmetry_1
_geom_bond_site_symmetry_2
Co1 O1 1_555 1_555
O2 Co1 1_555 1_555
N1 Co1 1_555 1_555
O3 Co1 1_555 1_555
O4 Co1 1_555 1_555
H1 O2 1_555 1_555
C1 O3 1_555 1_555
C2 C1 1_555 1_555
C3 C2 1_555 1_555
C5 C3 1_555 1_555
H2 C3 1_555 1_555
H10 O2 1_555 1_555
Co2 O2 1_555 1_555
C15 O4 1_555 1_555
O6 Co2 1_555 1_555
N5 Co2 1_555 1_555
O7 Co2 1_555 1_555
O8 C1 1_555 1_555
N6 Co2 1_555 1_555
C16 C15 1_555 1_555
C17 C16 1_555 1_555
H11 C17 1_555 1_555
C19 C17 1_555 1_555
C21 C19 1_555 1_555
O10 C21 1_555 1_555
O11 C21 1_555 1_555
Co5 O10 1_555 1_555
Co2 O8 1_555 1_555
C15 O7 1_555 1_555
O5 C7 1_555 1_555
O9 C7 1_555 1_555
Co3 O9 1_555 1_555
C6 C4 1_555 1_555
N3 C4 1_555 1_555
H3 C6 1_555 1_555
C9 N3 1_555 1_555
C10 N3 1_555 1_555
N4 C8 1_555 1_555
H4 C9 1_555 1_555
C11 C9 1_555 1_555
H5 C10 1_555 1_555
C13 N4 1_555 1_555
H6 C11 1_555 1_555
H8 C13 1_555 1_555
N7 C18 1_555 1_555
C20 C18 1_555 1_555
C23 N7 1_555 1_555
C24 N7 1_555 1_555
H12 C20 1_555 1_555
N8 C10 1_555 1_555
N9 C22 1_555 1_555
H13 C23 1_555 1_555
C25 C23 1_555 1_555
N10 C24 1_555 1_555
H14 C24 1_555 1_555
Co4 N8 1_555 1_555
C26 N9 1_555 1_555
C27 N9 1_555 1_555
H15 C25 1_555 1_555
N11 C13 1_555 1_555
N12 C26 1_555 1_555
H16 C26 1_555 1_555
C28 C27 1_555 1_555
H17 C27 1_555 1_555
C6 C8 1_555 1_555
C11 N8 1_555 1_555
C20 C22 1_555 1_555
C25 N10 1_555 1_555
N12 C28 1_555 1_555
C14 C12 1_555 1_555
H7 C12 1_555 1_555
H10_2 O2_2 1_555 1_555
Co8 O2_2 1_555 1_555
C15_2 O4_2 1_555 1_555
O6_2 Co8 1_555 1_555
O7_2 Co8 1_555 1_555
N6_2 Co8 1_555 1_555
C16_2 C15_2 1_555 1_555
C17_2 C16_2 1_555 1_555
C18_2 C16_2 1_555 1_555
H11_2 C17_2 1_555 1_555
C19_2 C17_2 1_555 1_555
N7_2 C18_2 1_555 1_555
C20_2 C18_2 1_555 1_555
C21_2 C19_2 1_555 1_555
C22_2 C19_2 1_555 1_555
C23_2 N7_2 1_555 1_555
C24_2 N7_2 1_555 1_555
H12_2 C20_2 1_555 1_555
O10_2 C21_2 1_555 1_555
O11_2 C21_2 1_555 1_555
N9_2 C22_2 1_555 1_555
H13_2 C23_2 1_555 1_555
C25_2 C23_2 1_555 1_555
N10_2 C24_2 1_555 1_555
H14_2 C24_2 1_555 1_555
Co4 O10_2 1_555 1_555
C26_2 N9_2 1_555 1_555
C27_2 N9_2 1_555 1_555
N5 C26_2 1_555 1_555
H16_2 C26_2 1_555 1_555
C28_2 C27_2 1_555 1_555
H17_2 C27_2 1_555 1_555
H18_2 C28_2 1_555 1_555
C15_2 O7_2 1_555 1_555
C20_2 C22_2 1_555 1_555
C25_2 N10_2 1_555 1_555
N5 C28_2 1_555 1_555
Co7 O1_2 1_555 1_555
O2_3 Co7 1_555 1_555
O3_2 Co7 1_555 1_555
H1_2 O2_3 1_555 1_555
C1_2 O3_2 1_555 1_555
C2_2 C1_2 1_555 1_555
C3_2 C2_2 1_555 1_555
C4_2 C2_2 1_555 1_555
C5_2 C3_2 1_555 1_555
H2_2 C3_2 1_555 1_555
C6_2 C4_2 1_555 1_555
N3_2 C4_2 1_555 1_555
C8_2 C5_2 1_555 1_555
H3_2 C6_2 1_555 1_555
C9_2 N3_2 1_555 1_555
C10_2 N3_2 1_555 1_555
N4_2 C8_2 1_555 1_555
H4_2 C9_2 1_555 1_555
C11_2 C9_2 1_555 1_555
H5_2 C10_2 1_555 1_555
C13_2 N4_2 1_555 1_555
H8_2 C13_2 1_555 1_555
O8_2 C1_2 1_555 1_555
N8_2 C10_2 1_555 1_555
Co5 N8_2 1_555 1_555
N1 C13_2 1_555 1_555
C6_2 C8_2 1_555 1_555
C11_2 N8_2 1_555 1_555
O5_2 C7_2 1_555 1_555
C14_2 C12_2 1_555 1_555
H7_2 C12_2 1_555 1_555
H9 C14_2 1_555 1_555
O9_2 C7_2 1_555 1_555
Co6 O9_2 1_555 1_555
C14_3 C12_3 1_555 1_555
H7_3 C12_3 1_555 1_555
C6_3 C4_3 1_555 1_555
N3_3 C4_3 1_555 1_555
H3_3 C6_3 1_555 1_555
C9_3 N3_3 1_555 1_555
C10_3 N3_3 1_555 1_555
N4_3 C8_3 1_555 1_555
H4_3 C9_3 1_555 1_555
C11_3 C9_3 1_555 1_555
H5_3 C10_3 1_555 1_555
C13_3 N4_3 1_555 1_555
H6_3 C11_3 1_555 1_555
H8_3 C13_3 1_555 1_555
N7_3 C18_3 1_555 1_555
C20_3 C18_3 1_555 1_555
C23_3 N7_3 1_555 1_555
C24_3 N7_3 1_555 1_555
H12_3 C20_3 1_555 1_555
N6 C10_3 1_555 1_555
N9_3 C22_3 1_555 1_555
H13_3 C23_3 1_555 1_555
C25_3 C23_3 1_555 1_555
N2 C24_3 1_555 1_555
H14_3 C24_3 1_555 1_555
C26_3 N9_3 1_555 1_555
C27_3 N9_3 1_555 1_555
H15_3 C25_3 1_555 1_555
N11_2 C13_3 1_555 1_555
N12_2 C26_3 1_555 1_555
H16_3 C26_3 1_555 1_555
C28_3 C27_3 1_555 1_555
H17_3 C27_3 1_555 1_555
C6_3 C8_3 1_555 1_555
C11_3 N6 1_555 1_555
C20_3 C22_3 1_555 1_555
C25_3 N2 1_555 1_555
N12_2 C28_3 1_555 1_555
O5_3 C7_3 1_555 1_555
O1_2 C7_3 1_555 1_555
O2_4 Co6 1_555 1_555
N1_2 Co6 1_555 1_555
O3_3 Co6 1_555 1_555
O4_3 Co6 1_555 1_555
H1_3 O2_4 1_555 1_555
C1_3 O3_3 1_555 1_555
C2_3 C1_3 1_555 1_555
C3_3 C2_3 1_555 1_555
C5_3 C3_3 1_555 1_555
H2_3 C3_3 1_555 1_555
H10_3 O2_4 1_555 1_555
Co4 O2_4 1_555 1_555
C15_3 O4_3 1_555 1_555
N5_2 Co4 1_555 1_555
O7_3 Co4 1_555 1_555
O8_3 C1_3 1_555 1_555
C16_3 C15_3 1_555 1_555
C17_3 C16_3 1_555 1_555
H11_3 C17_3 1_555 1_555
C19_3 C17_3 1_555 1_555
C21_3 C19_3 1_555 1_555
O6_2 C21_3 1_555 1_555
O11_3 C21_3 1_555 1_555
Co4 O8_3 1_555 1_555
C15_3 O7_3 1_555 1_555
O5_4 C7_4 1_555 1_555
C14_4 C12_4 1_555 1_555
H7_4 C12_4 1_555 1_555
H9_2 C14_4 1_555 1_555
O1 C7_4 1_555 1_555
O2_5 Co3 1_555 1_555
O3_4 Co3 1_555 1_555
H1_4 O2_5 1_555 1_555
C1_4 O3_4 1_555 1_555
C2_4 C1_4 1_555 1_555
C3_4 C2_4 1_555 1_555
C4_4 C2_4 1_555 1_555
C5_4 C3_4 1_555 1_555
H2_4 C3_4 1_555 1_555
C6_4 C4_4 1_555 1_555
N3_4 C4_4 1_555 1_555
C8_4 C5_4 1_555 1_555
H3_4 C6_4 1_555 1_555
C9_4 N3_4 1_555 1_555
C10_4 N3_4 1_555 1_555
N4_4 C8_4 1_555 1_555
H4_4 C9_4 1_555 1_555
C11_4 C9_4 1_555 1_555
H5_4 C10_4 1_555 1_555
C13_4 N4_4 1_555 1_555
H8_4 C13_4 1_555 1_555
O8_4 C1_4 1_555 1_555
N6_2 C10_4 1_555 1_555
N1_2 C13_4 1_555 1_555
C6_4 C8_4 1_555 1_555
C11_4 N6_2 1_555 1_555
H10_4 O2_6 1_555 1_555
Co5 O2_6 1_555 1_555
C15_4 O4_4 1_555 1_555
O7_4 Co5 1_555 1_555
C16_4 C15_4 1_555 1_555
C17_4 C16_4 1_555 1_555
C18_4 C16_4 1_555 1_555
H11_4 C17_4 1_555 1_555
C19_4 C17_4 1_555 1_555
N7_4 C18_4 1_555 1_555
C20_4 C18_4 1_555 1_555
C21_4 C19_4 1_555 1_555
C22_4 C19_4 1_555 1_555
C23_4 N7_4 1_555 1_555
C24_4 N7_4 1_555 1_555
H12_4 C20_4 1_555 1_555
O6 C21_4 1_555 1_555
O11_4 C21_4 1_555 1_555
N9_4 C22_4 1_555 1_555
H13_4 C23_4 1_555 1_555
C25_4 C23_4 1_555 1_555
N2_2 C24_4 1_555 1_555
H14_4 C24_4 1_555 1_555
C26_4 N9_4 1_555 1_555
C27_4 N9_4 1_555 1_555
N5_2 C26_4 1_555 1_555
H16_4 C26_4 1_555 1_555
C28_4 C27_4 1_555 1_555
H17_4 C27_4 1_555 1_555
H18_4 C28_4 1_555 1_555
C15_4 O7_4 1_555 1_555
C20_4 C22_4 1_555 1_555
C25_4 N2_2 1_555 1_555
N5_2 C28_4 1_555 1_555

#END
