
###############################################################################
#
# This file contains modified crystal structure data generated from the
# MOF subset of the Cambridge Structural Database (CSD) v543 
# hosted by the Cambridge Crystallographic Data Centre (CCDC).
#
# This work is licensed under the Creative Commons
# Attribution-NonCommercial-ShareAlike 4.0 International License.
# To view a copy of this license, visit
# http://creativecommons.org/licenses/by-nc-sa/4.0/
# or send a letter to
# Creative Commons, PO Box 1866, Mountain View, CA 94042, USA.
#
# CIF created using the CSD Python API on 29 September 2022
# The structure has been converted into the P1 space group
# The structure has a 3D framework
# The original CSD entry ZIMVAV is in the monoclinic crystal system
# The framework has been calculated to contain at least 10.0% void space
# The void calculation uses a probe of radius 1.32A, grid spacing 0.4
#
###############################################################################

data_ZIMVAV
_chemical_formula_moiety         '(C112 H72 Mn8 N32 O38)n'
_symmetry_cell_setting           triclinic
_symmetry_space_group_name_H-M   'P 1'
_symmetry_Int_Tables_number      1
_space_group_name_Hall           'P 1'
loop_
_symmetry_equiv_pos_site_id
_symmetry_equiv_pos_as_xyz
1 x,y,z
_cell_length_a                   21.587(2)
_cell_length_b                   13.7641(13)
_cell_length_c                   13.8032(12)
_cell_angle_alpha                90
_cell_angle_beta                 118.165(9)
_cell_angle_gamma                90
_cell_volume                     3615.66
loop_
_atom_site_label
_atom_site_type_symbol
_atom_site_fract_x
_atom_site_fract_y
_atom_site_fract_z
H17 H 0.0201 0.8511 0.6086
Mn4 Mn 0.01707(6) 0.72709(9) 0.39686(10)
Mn1 Mn 0.48293(6) 0.22709(9) 0.10314(10)
O1 O 0.4128(4) 0.1371(5) 0.1359(6)
O2 O 0.4214(4) 0.1479(6) 0.3034(6)
O5 O 0.5000 0.3144(6) 0.2500
H1 H 0.4608 0.3576 0.2184
C1 C 0.3249(4) 0.0655(7) 0.1660(7)
C2 C 0.2651(5) 0.1034(6) 0.0791(7)
H2 H 0.2694 0.1585 0.0437
C3 C 0.1989(4) 0.0625(6) 0.0425(7)
C14 C 0.3927(4) 0.1198(6) 0.2048(7)
H10 H 0.5392 0.3576 0.2816
Mn2 Mn 0.51707(6) 0.22709(9) 0.39686(10)
O6 O 0.5872(4) 0.1371(5) 0.3641(6)
O7 O 0.5786(4) 0.1479(6) 0.1966(6)
O8 O 0.8924(3) 0.1752(6) 0.5083(5)
O9 O 0.8787(4) 0.1022(6) 0.6424(6)
C15 C 0.6751(4) 0.0655(7) 0.3340(7)
C16 C 0.7349(5) 0.1034(6) 0.4209(7)
H11 H 0.7306 0.1585 0.4563
C17 C 0.8011(4) 0.0625(6) 0.4575(7)
C27 C 0.8628(5) 0.1166(7) 0.5441(7)
C28 C 0.6073(4) 0.1198(6) 0.2952(7)
Mn8 Mn 0.98293(6) 0.27291(9) 0.60314(10)
N9 N 0.5507(4) 0.1404(6) 0.5484(6)
N11 N 0.5435(4) 0.3351(7) 0.0566(7)
N12 N 0.4565(4) 0.3351(7) 0.4434(7)
O10 O 0.3924(3) 0.3248(6) 0.0083(5)
O11 O 0.6076(3) 0.3248(6) 0.4917(5)
O3 O 0.1076(3) 0.1752(6) 0.9917(5)
O4 O 0.1213(4) 0.1022(6) 0.8576(6)
C13 C 0.1372(5) 0.1166(7) 0.9559(7)
Mn7 Mn 0.01707(6) 0.27291(9) 0.89686(10)
N10 N 0.4493(4) 0.1404(6) 0.9516(6)
N1 N 0.3788(4) 0.9339(6) 0.2981(6)
N2 N 0.4493(4) 0.8596(6) 0.4516(6)
N3 N 0.1276(4) 0.9271(6) 0.0534(6)
N4 N 0.0435(4) 0.8351(7) 0.0566(7)
C4 C 0.1934(4) 0.9750(7) 0.0900(7)
C5 C 0.2534(5) 0.9331(6) 0.1744(7)
H3 H 0.2501 0.8744 0.2050
C6 C 0.3180(4) 0.9785(7) 0.2127(7)
C7 C 0.3870(5) 0.8972(7) 0.3942(8)
H4 H 0.3525 0.8985 0.4165
C8 C 0.4833(6) 0.8725(10) 0.3897(10)
H5 H 0.5289 0.8525 0.4102
C9 C 0.4411(6) 0.9182(11) 0.2956(10)
H6 H 0.4517 0.9358 0.2400
C10 C 0.1072(5) 0.8734(8) 0.1164(8)
H7 H 0.1344 0.8646 0.1917
N5 N 0.6212(4) 0.9339(6) 0.2019(6)
N6 N 0.5507(4) 0.8596(6) 0.0484(6)
N7 N 0.8724(4) 0.9271(6) 0.4466(6)
N8 N 0.9565(4) 0.8351(7) 0.4434(7)
C18 C 0.8066(4) 0.9750(7) 0.4100(7)
C19 C 0.7466(5) 0.9331(6) 0.3256(7)
H12 H 0.7499 0.8744 0.2950
C20 C 0.6820(4) 0.9785(7) 0.2873(7)
C21 C 0.6130(5) 0.8972(7) 0.1058(8)
H13 H 0.6475 0.8985 0.0835
C22 C 0.5167(6) 0.8725(10) 0.1103(10)
H14 H 0.4711 0.8525 0.0898
C23 C 0.5589(6) 0.9182(11) 0.2044(10)
H15 H 0.5483 0.9358 0.2600
C24 C 0.8928(5) 0.8734(8) 0.3836(8)
H16 H 0.8656 0.8646 0.3083
C25 C 0.9771(6) 0.8661(10) 0.5485(9)
C26 C 0.9272(6) 0.9211(9) 0.5537(8)
H18 H 0.9290 0.9494 0.6161
Mn6 Mn 0.48293(6) 0.77291(9) 0.60314(10)
C11 C 0.0229(6) 0.8661(10) 0.9515(9)
C12 C 0.0728(6) 0.9211(9) 0.9463(8)
H9 H 0.0710 0.9494 0.8839
Mn5 Mn 0.51707(6) 0.77291(9) 0.89686(10)
Mn3 Mn 0.98293(6) 0.72709(9) 0.10314(10)
O5_2 O 0.0000 0.8144(6) 0.2500
H5_2 H 0.0289 0.3525 0.4102
H10_2 H 0.0392 0.8576 0.2816
N5_2 N 0.1212(4) 0.4339(6) 0.2019(6)
N6_2 N 0.0507(4) 0.3596(6) 0.0484(6)
N7_2 N 0.3724(4) 0.4271(6) 0.4466(6)
O6_2 O 0.0872(4) 0.6371(5) 0.3641(6)
O7_2 O 0.0786(4) 0.6479(6) 0.1966(6)
O8_2 O 0.3924(3) 0.6752(6) 0.5083(5)
O9_2 O 0.3787(4) 0.6022(6) 0.6424(6)
C15_2 C 0.1751(4) 0.5655(7) 0.3340(7)
C16_2 C 0.2349(5) 0.6034(6) 0.4209(7)
H11_2 H 0.2306 0.6585 0.4563
C17_2 C 0.3011(4) 0.5625(6) 0.4575(7)
C18_2 C 0.3066(4) 0.4750(7) 0.4100(7)
C19_2 C 0.2466(5) 0.4331(6) 0.3256(7)
H12_2 H 0.2499 0.3744 0.2950
C20_2 C 0.1820(4) 0.4785(7) 0.2873(7)
C21_2 C 0.1130(5) 0.3972(7) 0.1058(8)
H13_2 H 0.1475 0.3985 0.0835
C22_2 C 0.0167(6) 0.3725(10) 0.1103(10)
C23_2 C 0.0589(6) 0.4182(11) 0.2044(10)
H15_2 H 0.0483 0.4358 0.2600
C24_2 C 0.3928(5) 0.3734(8) 0.3836(8)
H16_2 H 0.3656 0.3646 0.3083
C25_2 C 0.4771(6) 0.3661(10) 0.5485(9)
H17_2 H 0.5201 0.3511 0.6086
C26_2 C 0.4272(6) 0.4211(9) 0.5537(8)
H18_2 H 0.4290 0.4494 0.6161
C27_2 C 0.3628(5) 0.6166(7) 0.5441(7)
C28_2 C 0.1073(4) 0.6198(6) 0.2952(7)
N9_2 N 0.0507(4) 0.6404(6) 0.5484(6)
O11_2 O 0.1076(3) 0.8248(6) 0.4917(5)
N1_2 N 0.8788(4) 0.4339(6) 0.2981(6)
N2_2 N 0.9493(4) 0.3596(6) 0.4516(6)
N3_2 N 0.6276(4) 0.4271(6) 0.0534(6)
O1_2 O 0.9128(4) 0.6371(5) 0.1359(6)
O2_2 O 0.9214(4) 0.6479(6) 0.3034(6)
O5_3 O 1.0000 0.8144(6) 0.2500
H1_2 H 0.9608 0.8576 0.2184
C1_2 C 0.8249(4) 0.5655(7) 0.1660(7)
C2_2 C 0.7651(5) 0.6034(6) 0.0791(7)
H2_2 H 0.7694 0.6585 0.0437
C3_2 C 0.6989(4) 0.5625(6) 0.0425(7)
C4_2 C 0.6934(4) 0.4750(7) 0.0900(7)
C5_2 C 0.7534(5) 0.4331(6) 0.1744(7)
H3_2 H 0.7501 0.3744 0.2050
C6_2 C 0.8180(4) 0.4785(7) 0.2127(7)
C7_2 C 0.8870(5) 0.3972(7) 0.3942(8)
H4_2 H 0.8525 0.3985 0.4165
C8_2 C 0.9833(6) 0.3725(10) 0.3897(10)
C9_2 C 0.9411(6) 0.4182(11) 0.2956(10)
H6_2 H 0.9517 0.4358 0.2400
C10_2 C 0.6072(5) 0.3734(8) 0.1164(8)
H7_2 H 0.6344 0.3646 0.1917
C14_2 C 0.8927(4) 0.6198(6) 0.2048(7)
H14_2 H 0.9711 0.3525 0.0898
O10_2 O 0.8924(3) 0.8248(6) 0.0083(5)
O3_2 O 0.6076(3) 0.6752(6) 0.9917(5)
O4_2 O 0.6213(4) 0.6022(6) 0.8576(6)
C11_2 C 0.5229(6) 0.3661(10) 0.9515(9)
H8 H 0.4799 0.3511 0.8914
C12_2 C 0.5728(6) 0.4211(9) 0.9463(8)
H9_2 H 0.5710 0.4494 0.8839
C13_2 C 0.6372(5) 0.6166(7) 0.9559(7)
N10_2 N 0.9493(4) 0.6404(6) 0.9516(6)
C11_3 C 0.9771(6) 0.1339(10) 0.0485(9)
C12_3 C 0.9272(6) 0.0789(9) 0.0537(8)
H9_3 H 0.9290 0.0506 0.1161
N1_3 N 0.6212(4) 0.0661(6) 0.7019(6)
N3_3 N 0.8724(4) 0.0729(6) 0.9466(6)
N4_2 N 0.9565(4) 0.1649(7) 0.9434(7)
C4_3 C 0.8066(4) 0.0250(7) 0.9100(7)
C5_3 C 0.7466(5) 0.0669(6) 0.8256(7)
H3_3 H 0.7499 0.1256 0.7950
C6_3 C 0.6820(4) 0.0215(7) 0.7873(7)
C7_3 C 0.6130(5) 0.1028(7) 0.6058(8)
H4_3 H 0.6475 0.1015 0.5835
C8_3 C 0.5167(6) 0.1275(10) 0.6103(10)
H5_3 H 0.4711 0.1475 0.5898
C9_3 C 0.5589(6) 0.0818(11) 0.7044(10)
H6_3 H 0.5483 0.0642 0.7600
C10_3 C 0.8928(5) 0.1266(8) 0.8836(8)
H7_3 H 0.8656 0.1354 0.8083
N5_3 N 0.3788(4) 0.0661(6) 0.7981(6)
N7_3 N 0.1276(4) 0.0729(6) 0.5534(6)
N8_2 N 0.0435(4) 0.1649(7) 0.5566(7)
C18_3 C 0.1934(4) 0.0250(7) 0.5900(7)
C19_3 C 0.2534(5) 0.0669(6) 0.6744(7)
H12_3 H 0.2501 0.1256 0.7050
C20_3 C 0.3180(4) 0.0215(7) 0.7127(7)
C21_3 C 0.3870(5) 0.1028(7) 0.8942(8)
H13_3 H 0.3525 0.1015 0.9165
C22_3 C 0.4833(6) 0.1275(10) 0.8897(10)
H14_3 H 0.5289 0.1475 0.9102
C23_3 C 0.4411(6) 0.0818(11) 0.7956(10)
H15_3 H 0.4517 0.0642 0.7400
C24_3 C 0.1072(5) 0.1266(8) 0.6164(8)
H16_3 H 0.1344 0.1354 0.6917
C25_3 C 0.0229(6) 0.1339(10) 0.4515(9)
C26_3 C 0.0728(6) 0.0789(9) 0.4463(8)
H18_3 H 0.0710 0.0506 0.3839
O4_3 O 0.8787(4) 0.8978(6) 0.1424(6)
C13_3 C 0.8628(5) 0.8834(7) 0.0441(7)
O1_3 O 0.5872(4) 0.8629(5) 0.8641(6)
O2_3 O 0.5786(4) 0.8521(6) 0.6966(6)
O5_4 O 0.5000 0.6856(6) 0.7500
H1_3 H 0.5392 0.6424 0.7816
C1_3 C 0.6751(4) 0.9345(7) 0.8340(7)
C2_3 C 0.7349(5) 0.8966(6) 0.9209(7)
H2_3 H 0.7306 0.8415 0.9563
C3_3 C 0.8011(4) 0.9375(6) 0.9575(7)
C14_3 C 0.6073(4) 0.8802(6) 0.7952(7)
H10_3 H 0.4608 0.6424 0.7184
O6_3 O 0.4128(4) 0.8629(5) 0.6359(6)
O7_3 O 0.4214(4) 0.8521(6) 0.8034(6)
O9_3 O 0.1213(4) 0.8978(6) 0.3576(6)
C15_3 C 0.3249(4) 0.9345(7) 0.6660(7)
C16_3 C 0.2651(5) 0.8966(6) 0.5791(7)
H11_3 H 0.2694 0.8415 0.5437
C17_3 C 0.1989(4) 0.9375(6) 0.5425(7)
C27_3 C 0.1372(5) 0.8834(7) 0.4559(7)
C28_3 C 0.3927(4) 0.8802(6) 0.7048(7)
N11_2 N 0.4565(4) 0.6649(7) 0.9434(7)
N12_2 N 0.5435(4) 0.6649(7) 0.5566(7)
H17_3 H 0.9799 0.1489 0.3914
O4_4 O 0.3787(4) 0.3978(6) 0.1424(6)
C11_4 C 0.4771(6) 0.6339(10) 0.0485(9)
H8_2 H 0.5201 0.6489 0.1086
C12_4 C 0.4272(6) 0.5789(9) 0.0537(8)
H9_4 H 0.4290 0.5506 0.1161
C13_4 C 0.3628(5) 0.3834(7) 0.0441(7)
N1_4 N 0.1212(4) 0.5661(6) 0.7019(6)
N3_4 N 0.3724(4) 0.5729(6) 0.9466(6)
O1_4 O 0.0872(4) 0.3629(5) 0.8641(6)
O2_4 O 0.0786(4) 0.3521(6) 0.6966(6)
O5_5 O 0.0000 0.1856(6) 0.7500
H1_4 H 0.0392 0.1424 0.7816
C1_4 C 0.1751(4) 0.4345(7) 0.8340(7)
C2_4 C 0.2349(5) 0.3966(6) 0.9209(7)
H2_4 H 0.2306 0.3415 0.9563
C3_4 C 0.3011(4) 0.4375(6) 0.9575(7)
C4_4 C 0.3066(4) 0.5250(7) 0.9100(7)
C5_4 C 0.2466(5) 0.5669(6) 0.8256(7)
H3_4 H 0.2499 0.6256 0.7950
C6_4 C 0.1820(4) 0.5215(7) 0.7873(7)
C7_4 C 0.1130(5) 0.6028(7) 0.6058(8)
H4_4 H 0.1475 0.6015 0.5835
C8_4 C 0.0167(6) 0.6275(10) 0.6103(10)
C9_4 C 0.0589(6) 0.5818(11) 0.7044(10)
H6_4 H 0.0483 0.5642 0.7600
C10_4 C 0.3928(5) 0.6266(8) 0.8836(8)
H7_4 H 0.3656 0.6354 0.8083
C14_4 C 0.1073(4) 0.3802(6) 0.7952(7)
H14_4 H 0.0289 0.6475 0.9102
O5_6 O 1.0000 0.1856(6) 0.7500
H5_4 H 0.9711 0.6475 0.5898
H10_4 H 0.9608 0.1424 0.7184
N5_4 N 0.8788(4) 0.5661(6) 0.7981(6)
N7_4 N 0.6276(4) 0.5729(6) 0.5534(6)
O6_4 O 0.9128(4) 0.3629(5) 0.6359(6)
O7_4 O 0.9214(4) 0.3521(6) 0.8034(6)
O9_4 O 0.6213(4) 0.3978(6) 0.3576(6)
C15_4 C 0.8249(4) 0.4345(7) 0.6660(7)
C16_4 C 0.7651(5) 0.3966(6) 0.5791(7)
H11_4 H 0.7694 0.3415 0.5437
C17_4 C 0.6989(4) 0.4375(6) 0.5425(7)
C18_4 C 0.6934(4) 0.5250(7) 0.5900(7)
C19_4 C 0.7534(5) 0.5669(6) 0.6744(7)
H12_4 H 0.7501 0.6256 0.7050
C20_4 C 0.8180(4) 0.5215(7) 0.7127(7)
C21_4 C 0.8870(5) 0.6028(7) 0.8942(8)
H13_4 H 0.8525 0.6015 0.9165
C22_4 C 0.9833(6) 0.6275(10) 0.8897(10)
C23_4 C 0.9411(6) 0.5818(11) 0.7956(10)
H15_4 H 0.9517 0.5642 0.7400
C24_4 C 0.6072(5) 0.6266(8) 0.6164(8)
H16_4 H 0.6344 0.6354 0.6917
C25_4 C 0.5229(6) 0.6339(10) 0.4515(9)
H17_4 H 0.4799 0.6489 0.3914
C26_4 C 0.5728(6) 0.5789(9) 0.4463(8)
H18_4 H 0.5710 0.5506 0.3839
C27_4 C 0.6372(5) 0.3834(7) 0.4559(7)
C28_4 C 0.8927(4) 0.3802(6) 0.7048(7)
H8_3 H 0.9799 0.8511 0.8914
H8_4 H 0.0201 0.1489 0.1086
loop_
_geom_bond_atom_site_label_1
_geom_bond_atom_site_label_2
_geom_bond_site_symmetry_1
_geom_bond_site_symmetry_2
Mn1 O1 1_555 1_555
O1 C14 1_555 1_555
O2 C14 1_555 1_555
O5 Mn1 1_555 1_555
H1 O5 1_555 1_555
C1 C2 1_555 1_555
C2 H2 1_555 1_555
C3 C2 1_555 1_555
C14 C1 1_555 1_555
H10 O5 1_555 1_555
Mn2 O2 1_555 1_555
O6 Mn2 1_555 1_555
O7 Mn1 1_555 1_555
O8 C27 1_555 1_555
O9 C27 1_555 1_555
C15 C16 1_555 1_555
C16 H11 1_555 1_555
C17 C16 1_555 1_555
C27 C17 1_555 1_555
C28 O6 1_555 1_555
Mn8 O8 1_555 1_555
N9 Mn2 1_555 1_555
N11 Mn1 1_555 1_555
N12 Mn2 1_555 1_555
O10 Mn1 1_555 1_555
O11 Mn2 1_555 1_555
O5 Mn2 1_555 1_555
O7 C28 1_555 1_555
C15 C28 1_555 1_555
O3 C13 1_555 1_555
O4 C13 1_555 1_555
Mn7 O3 1_555 1_555
N1 C6 1_555 1_555
N2 C7 1_555 1_555
N3 C4 1_555 1_555
N4 C10 1_555 1_555
C5 C4 1_555 1_555
H3 C5 1_555 1_555
C7 N1 1_555 1_555
H4 C7 1_555 1_555
C8 N2 1_555 1_555
H5 C8 1_555 1_555
C9 N1 1_555 1_555
H6 C9 1_555 1_555
C10 N3 1_555 1_555
H7 C10 1_555 1_555
N5 C20 1_555 1_555
N6 C21 1_555 1_555
N7 C18 1_555 1_555
N8 C24 1_555 1_555
C19 C18 1_555 1_555
H12 C19 1_555 1_555
C21 N5 1_555 1_555
H13 C21 1_555 1_555
C22 N6 1_555 1_555
H14 C22 1_555 1_555
C23 N5 1_555 1_555
H15 C23 1_555 1_555
C24 N7 1_555 1_555
H16 C24 1_555 1_555
C25 N8 1_555 1_555
C26 N7 1_555 1_555
H18 C26 1_555 1_555
Mn6 N2 1_555 1_555
C5 C6 1_555 1_555
C8 C9 1_555 1_555
C19 C20 1_555 1_555
C22 C23 1_555 1_555
C25 C26 1_555 1_555
H9 C12 1_555 1_555
C11 C12 1_555 1_555
H10_2 O5_2 1_555 1_555
N5_2 C20_2 1_555 1_555
N6_2 C21_2 1_555 1_555
N7_2 C18_2 1_555 1_555
N12 C24_2 1_555 1_555
O6_2 Mn4 1_555 1_555
O8_2 C27_2 1_555 1_555
O9_2 C27_2 1_555 1_555
C15_2 C16_2 1_555 1_555
C16_2 H11_2 1_555 1_555
C17_2 C16_2 1_555 1_555
C18_2 C17_2 1_555 1_555
C19_2 C18_2 1_555 1_555
H12_2 C19_2 1_555 1_555
C20_2 C15_2 1_555 1_555
C21_2 N5_2 1_555 1_555
H13_2 C21_2 1_555 1_555
C22_2 N6_2 1_555 1_555
C23_2 N5_2 1_555 1_555
H15_2 C23_2 1_555 1_555
C24_2 N7_2 1_555 1_555
H16_2 C24_2 1_555 1_555
C25_2 N12 1_555 1_555
H17_2 C25_2 1_555 1_555
C26_2 N7_2 1_555 1_555
H18_2 C26_2 1_555 1_555
C27_2 C17_2 1_555 1_555
C28_2 O6_2 1_555 1_555
Mn6 O8_2 1_555 1_555
N9_2 Mn4 1_555 1_555
O11_2 Mn4 1_555 1_555
O5_2 Mn4 1_555 1_555
O7_2 C28_2 1_555 1_555
C15_2 C28_2 1_555 1_555
C19_2 C20_2 1_555 1_555
C22_2 C23_2 1_555 1_555
C25_2 C26_2 1_555 1_555
Mn3 O1_2 1_555 1_555
N1_2 C6_2 1_555 1_555
N2_2 C7_2 1_555 1_555
N3_2 C4_2 1_555 1_555
N11 C10_2 1_555 1_555
O1_2 C14_2 1_555 1_555
O2_2 C14_2 1_555 1_555
O5_3 Mn3 1_555 1_555
H1_2 O5_3 1_555 1_555
C1_2 C2_2 1_555 1_555
C2_2 H2_2 1_555 1_555
C3_2 C2_2 1_555 1_555
C4_2 C3_2 1_555 1_555
C5_2 C4_2 1_555 1_555
H3_2 C5_2 1_555 1_555
C6_2 C1_2 1_555 1_555
C7_2 N1_2 1_555 1_555
H4_2 C7_2 1_555 1_555
C8_2 N2_2 1_555 1_555
C9_2 N1_2 1_555 1_555
H6_2 C9_2 1_555 1_555
C10_2 N3_2 1_555 1_555
H7_2 C10_2 1_555 1_555
C14_2 C1_2 1_555 1_555
Mn8 N2_2 1_555 1_555
O10_2 Mn3 1_555 1_555
C5_2 C6_2 1_555 1_555
C8_2 C9_2 1_555 1_555
O3_2 C13_2 1_555 1_555
O4_2 C13_2 1_555 1_555
H8 C11_2 1_555 1_555
H9_2 C12_2 1_555 1_555
Mn5 O3_2 1_555 1_555
C11_2 C12_2 1_555 1_555
H9_3 C12_3 1_555 1_555
C11_3 C12_3 1_555 1_555
N1_3 C6_3 1_555 1_555
N9 C7_3 1_555 1_555
N3_3 C4_3 1_555 1_555
N4_2 C10_3 1_555 1_555
C5_3 C4_3 1_555 1_555
H3_3 C5_3 1_555 1_555
C7_3 N1_3 1_555 1_555
H4_3 C7_3 1_555 1_555
C8_3 N9 1_555 1_555
H5_3 C8_3 1_555 1_555
C9_3 N1_3 1_555 1_555
H6_3 C9_3 1_555 1_555
C10_3 N3_3 1_555 1_555
H7_3 C10_3 1_555 1_555
N5_3 C20_3 1_555 1_555
N10 C21_3 1_555 1_555
N7_3 C18_3 1_555 1_555
N8_2 C24_3 1_555 1_555
C19_3 C18_3 1_555 1_555
H12_3 C19_3 1_555 1_555
C21_3 N5_3 1_555 1_555
H13_3 C21_3 1_555 1_555
C22_3 N10 1_555 1_555
H14_3 C22_3 1_555 1_555
C23_3 N5_3 1_555 1_555
H15_3 C23_3 1_555 1_555
C24_3 N7_3 1_555 1_555
H16_3 C24_3 1_555 1_555
C25_3 N8_2 1_555 1_555
C26_3 N7_3 1_555 1_555
H18_3 C26_3 1_555 1_555
C5_3 C6_3 1_555 1_555
C8_3 C9_3 1_555 1_555
C19_3 C20_3 1_555 1_555
C22_3 C23_3 1_555 1_555
C25_3 C26_3 1_555 1_555
O10_2 C13_3 1_555 1_555
O4_3 C13_3 1_555 1_555
Mn5 O1_3 1_555 1_555
O1_3 C14_3 1_555 1_555
O2_3 C14_3 1_555 1_555
O5_4 Mn5 1_555 1_555
H1_3 O5_4 1_555 1_555
C1_3 C2_3 1_555 1_555
C2_3 H2_3 1_555 1_555
C3_3 C2_3 1_555 1_555
C14_3 C1_3 1_555 1_555
H10_3 O5_4 1_555 1_555
Mn6 O2_3 1_555 1_555
O6_3 Mn6 1_555 1_555
O7_3 Mn5 1_555 1_555
O11_2 C27_3 1_555 1_555
O9_3 C27_3 1_555 1_555
C15_3 C16_3 1_555 1_555
C16_3 H11_3 1_555 1_555
C17_3 C16_3 1_555 1_555
C27_3 C17_3 1_555 1_555
C28_3 O6_3 1_555 1_555
N11_2 Mn5 1_555 1_555
N12_2 Mn6 1_555 1_555
O5_4 Mn6 1_555 1_555
O7_3 C28_3 1_555 1_555
C15_3 C28_3 1_555 1_555
O10 C13_4 1_555 1_555
O4_4 C13_4 1_555 1_555
H8_2 C11_4 1_555 1_555
H9_4 C12_4 1_555 1_555
C11_4 C12_4 1_555 1_555
Mn7 O1_4 1_555 1_555
N1_4 C6_4 1_555 1_555
N9_2 C7_4 1_555 1_555
N3_4 C4_4 1_555 1_555
N11_2 C10_4 1_555 1_555
O1_4 C14_4 1_555 1_555
O2_4 C14_4 1_555 1_555
O5_5 Mn7 1_555 1_555
H1_4 O5_5 1_555 1_555
C1_4 C2_4 1_555 1_555
C2_4 H2_4 1_555 1_555
C3_4 C2_4 1_555 1_555
C4_4 C3_4 1_555 1_555
C5_4 C4_4 1_555 1_555
H3_4 C5_4 1_555 1_555
C6_4 C1_4 1_555 1_555
C7_4 N1_4 1_555 1_555
H4_4 C7_4 1_555 1_555
C8_4 N9_2 1_555 1_555
C9_4 N1_4 1_555 1_555
H6_4 C9_4 1_555 1_555
C10_4 N3_4 1_555 1_555
H7_4 C10_4 1_555 1_555
C14_4 C1_4 1_555 1_555
C5_4 C6_4 1_555 1_555
C8_4 C9_4 1_555 1_555
H10_4 O5_6 1_555 1_555
N5_4 C20_4 1_555 1_555
N10_2 C21_4 1_555 1_555
N7_4 C18_4 1_555 1_555
N12_2 C24_4 1_555 1_555
O6_4 Mn8 1_555 1_555
O11 C27_4 1_555 1_555
O9_4 C27_4 1_555 1_555
C15_4 C16_4 1_555 1_555
C16_4 H11_4 1_555 1_555
C17_4 C16_4 1_555 1_555
C18_4 C17_4 1_555 1_555
C19_4 C18_4 1_555 1_555
H12_4 C19_4 1_555 1_555
C20_4 C15_4 1_555 1_555
C21_4 N5_4 1_555 1_555
H13_4 C21_4 1_555 1_555
C22_4 N10_2 1_555 1_555
C23_4 N5_4 1_555 1_555
H15_4 C23_4 1_555 1_555
C24_4 N7_4 1_555 1_555
H16_4 C24_4 1_555 1_555
C25_4 N12_2 1_555 1_555
H17_4 C25_4 1_555 1_555
C26_4 N7_4 1_555 1_555
H18_4 C26_4 1_555 1_555
C27_4 C17_4 1_555 1_555
C28_4 O6_4 1_555 1_555
O5_6 Mn8 1_555 1_555
O7_4 C28_4 1_555 1_555
C15_4 C28_4 1_555 1_555
C19_4 C20_4 1_555 1_555
C22_4 C23_4 1_555 1_555
C25_4 C26_4 1_555 1_555

#END
