
###############################################################################
#
# This file contains modified crystal structure data generated from the
# MOF subset of the Cambridge Structural Database (CSD) v543 
# hosted by the Cambridge Crystallographic Data Centre (CCDC).
#
# This work is licensed under the Creative Commons
# Attribution-NonCommercial-ShareAlike 4.0 International License.
# To view a copy of this license, visit
# http://creativecommons.org/licenses/by-nc-sa/4.0/
# or send a letter to
# Creative Commons, PO Box 1866, Mountain View, CA 94042, USA.
#
# CIF created using the CSD Python API on 29 September 2022
# The structure has been converted into the P1 space group
# The structure has a 3D framework
# The original CSD entry ZINQAR is in the hexagonal crystal system
# The framework has been calculated to contain at least 10.0% void space
# The void calculation uses a probe of radius 1.32A, grid spacing 0.4
#
###############################################################################

data_ZINQAR
_chemical_formula_moiety         '(C126 H90 Cu12 N18 O51)n'
_symmetry_cell_setting           triclinic
_symmetry_space_group_name_H-M   'P 1'
_symmetry_Int_Tables_number      1
_space_group_name_Hall           'P 1'
loop_
_symmetry_equiv_pos_site_id
_symmetry_equiv_pos_as_xyz
1 x,y,z
_cell_length_a                   18.4908(5)
_cell_length_b                   18.4908(5)
_cell_length_c                   23.7857(13)
_cell_angle_alpha                90
_cell_angle_beta                 90
_cell_angle_gamma                120
_cell_volume                     7043
loop_
_atom_site_label
_atom_site_type_symbol
_atom_site_fract_x
_atom_site_fract_y
_atom_site_fract_z
O3 O 0.4395(3) 0.4099(2) 0.07284(15)
N1 N 0.1802(6) 0.0901(3) 0.2500
N2 N 0.1736(6) 0.0868(3) 0.1509(4)
H2 H 0.1199 0.0599 0.1515
H3 H 0.1997 0.0999 0.1194
C1 C 0.4213(3) 0.2748(3) 0.0699(2)
C2 C 0.4439(5) 0.2220(2) 0.0456(3)
H4 H 0.4747 0.2374 0.0124
C3 C 0.3779(3) 0.2539(3) 0.1188(2)
H5 H 0.3636 0.2907 0.1352
C4 C 0.3544(5) 0.1772(2) 0.1450(3)
C5 C 0.4503(4) 0.3601(4) 0.0438(2)
C6 C 0.3044(5) 0.1522(3) 0.2003(3)
C7 C 0.2185(6) 0.1093(3) 0.2015(4)
C8 C 0.3471(8) 0.1735(4) 0.2500
H6 H 0.4052 0.2026 0.2500
O4 O 0.4806(2) 0.1095(3) 0.50485(14)
O5 O 0.4395(3) 0.0296(4) 0.42716(15)
N3 N 0.1736(6) 0.0868(7) 0.3491(4)
H7 H 0.1199 0.0600 0.3485
H8 H 0.1997 0.0998 0.3806
C9 C 0.4213(3) 0.1465(4) 0.4301(2)
C10 C 0.4439(5) 0.2219(5) 0.4544(3)
H9 H 0.4747 0.2373 0.4876
C11 C 0.3779(3) 0.1240(4) 0.3812(2)
H10 H 0.3636 0.0729 0.3648
C12 C 0.3544(5) 0.1772(5) 0.3550(3)
C13 C 0.4503(4) 0.0902(6) 0.4562(2)
C14 C 0.3044(5) 0.1522(6) 0.2997(3)
C15 C 0.2185(6) 0.1092(7) 0.2985(4)
O6 O 0.4806(2) 0.3711(2) 0.50485(14)
O7 O 0.4395(3) 0.4099(2) 0.42716(15)
C16 C 0.4213(3) 0.2748(3) 0.4301(2)
C17 C 0.3779(3) 0.2539(3) 0.3812(2)
H11 H 0.3636 0.2907 0.3648
C18 C 0.4503(4) 0.3601(4) 0.4562(2)
O9 O 0.4395(3) 0.0296(4) 0.07284(15)
C19 C 0.4213(3) 0.1465(4) 0.0699(2)
C20 C 0.3779(3) 0.1240(4) 0.1188(2)
H12 H 0.3636 0.0729 0.1352
C21 C 0.4503(4) 0.0902(6) 0.0438(2)
Cu3 Cu 0.47603(2) 0.52397(2) 0.45451(3)
Cu5 Cu 0.52397(2) 0.47603(2) 0.54549(3)
Cu6 Cu 0.52397(2) 0.04794(3) 0.54549(3)
Cu7 Cu 0.47603(2) 0.52397(2) 0.04549(3)
Cu1 Cu 0.52397(2) 0.47603(2) 0.95451(3)
O1 O 0.4806(2) 0.3711(2) 0.99515(14)
O2 O 0.5653(2) 0.4347(2) 0.8804(3)
H1 H 0.5248 0.4023 0.8611
O8 O 0.4806(2) 0.1095(3) 0.99515(14)
H13 H 0.5977 0.4752 0.8611
Cu2 Cu 0.52397(2) 0.04794(3) 0.95451(3)
O10 O 0.5653(2) 0.1306(3) 0.8804(3)
H14 H 0.5977 0.1225 0.8611
H15 H 0.5248 0.1225 0.8611
O11 O 0.6289(2) 0.1095(3) 0.99515(14)
O12 O 0.6289(2) 0.5194(2) 0.99515(14)
O13 O 0.4099(2) 0.4395(3) 0.92716(15)
O15 O 0.5605(3) 0.5901(2) 0.92716(15)
Cu4 Cu 0.47603(2) 0.95206(3) 0.45451(3)
Cu8 Cu 0.47603(2) 0.95206(3) 0.04549(3)
O14 O 0.5605(3) 0.9704(4) 0.92716(15)
O16 O 0.4099(2) 0.9704(4) 0.92716(15)
O4_2 O 0.3711(4) 0.4806(2) 0.00485(14)
O6_2 O 0.1095(3) 0.4806(2) 0.00485(14)
Cu5_2 Cu 0.04794(3) 0.52397(2) 0.04549(3)
Cu1_2 Cu 0.04794(3) 0.52397(2) 0.45451(3)
O1_2 O 0.1095(3) 0.4806(2) 0.49515(14)
O2_2 O 0.1306(3) 0.5653(2) 0.3804(3)
H1_2 H 0.1225 0.5248 0.3611
O3_2 O 0.0296(4) 0.4395(3) 0.57284(15)
N1_2 N 0.0901(7) 0.1802(6) 0.7500
N2_2 N 0.0868(7) 0.1736(6) 0.6509(4)
H2_2 H 0.0600 0.1199 0.6515
H3_2 H 0.0998 0.1997 0.6194
C1_2 C 0.1465(4) 0.4213(3) 0.5699(2)
C2_2 C 0.2219(5) 0.4439(5) 0.5456(3)
H4_2 H 0.2373 0.4747 0.5124
C3_2 C 0.1240(4) 0.3779(3) 0.6188(2)
H5_2 H 0.0729 0.3636 0.6352
C4_2 C 0.1772(5) 0.3544(5) 0.6450(3)
C5_2 C 0.0902(6) 0.4503(4) 0.5438(2)
C6_2 C 0.1522(6) 0.3044(5) 0.7003(3)
C7_2 C 0.1092(7) 0.2185(6) 0.7015(4)
C8_2 C 0.1736(9) 0.3471(8) 0.7500
H6_2 H 0.2026 0.4052 0.7500
N3_2 N 0.0868(9) 0.1736(6) 0.8491(4)
H7_2 H 0.0599 0.1199 0.8485
H8_2 H 0.0999 0.1997 0.8806
C9_2 C 0.2748(5) 0.4213(3) 0.9301(2)
C10_2 C 0.2220(7) 0.4439(5) 0.9544(3)
H9_2 H 0.2374 0.4747 0.9876
C11_2 C 0.2539(5) 0.3779(3) 0.8812(2)
H10_2 H 0.2907 0.3636 0.8648
C12_2 C 0.1772(7) 0.3544(5) 0.8550(3)
C13_2 C 0.3601(7) 0.4503(4) 0.9562(2)
C14_2 C 0.1522(8) 0.3044(5) 0.7997(3)
C15_2 C 0.1093(9) 0.2185(6) 0.7985(4)
O7_2 O 0.0296(4) 0.4395(3) 0.92716(15)
C16_2 C 0.1465(4) 0.4213(3) 0.9301(2)
C17_2 C 0.1240(4) 0.3779(3) 0.8812(2)
H11_2 H 0.0729 0.3636 0.8648
C18_2 C 0.0902(6) 0.4503(4) 0.9562(2)
O8_2 O 0.3711(4) 0.4806(2) 0.49515(14)
O9_2 O 0.4099(5) 0.4395(3) 0.57284(15)
C19_2 C 0.2748(5) 0.4213(3) 0.5699(2)
C20_2 C 0.2539(5) 0.3779(3) 0.6188(2)
H12_2 H 0.2907 0.3636 0.6352
C21_2 C 0.3601(7) 0.4503(4) 0.5438(2)
H13_2 H 0.1225 0.5977 0.3611
O10_2 O 0.4347(4) 0.5653(2) 0.3804(3)
H14_2 H 0.4752 0.5977 0.3611
H15_2 H 0.4023 0.5248 0.3611
O11_2 O 0.5194(4) 0.6289(2) 0.49515(14)
O12_2 O 0.1095(3) 0.6289(2) 0.49515(14)
O14_2 O 0.5901(5) 0.5605(3) 0.42716(15)
Cu3_2 Cu 0.95206(3) 0.47603(2) 0.95451(3)
Cu7_2 Cu 0.95206(3) 0.47603(2) 0.54549(3)
O13_2 O 0.9704(4) 0.4099(2) 0.42716(15)
O15_2 O 0.9704(4) 0.5605(3) 0.42716(15)
O14_3 O 0.0296(4) 0.5901(5) 0.92716(15)
O3_3 O 0.5901(2) 0.0296(4) 0.07284(15)
N1_3 N 0.9099(3) 0.0901(7) 0.2500
N2_3 N 0.9132(3) 0.0868(7) 0.1509(4)
H2_3 H 0.9401 0.0600 0.1515
H3_3 H 0.9001 0.0998 0.1194
C1_3 C 0.7252(3) 0.1465(4) 0.0699(2)
C2_3 C 0.7780(2) 0.2219(5) 0.0456(3)
H4_3 H 0.7626 0.2373 0.0124
C3_3 C 0.7461(3) 0.1240(4) 0.1188(2)
H5_3 H 0.7093 0.0729 0.1352
C4_3 C 0.8228(2) 0.1772(5) 0.1450(3)
C5_3 C 0.6399(4) 0.0902(6) 0.0438(2)
C6_3 C 0.8478(3) 0.1522(6) 0.2003(3)
C7_3 C 0.8907(3) 0.1092(7) 0.2015(4)
C8_3 C 0.8265(4) 0.1736(9) 0.2500
H6_3 H 0.7974 0.2026 0.2500
O4_3 O 0.8905(3) 0.3711(4) 0.50485(14)
N3_3 N 0.9132(7) 0.0868(9) 0.3491(4)
H7_3 H 0.9400 0.0599 0.3485
H8_3 H 0.9002 0.0999 0.3806
C9_3 C 0.8535(4) 0.2748(5) 0.4301(2)
C10_3 C 0.7781(5) 0.2220(7) 0.4544(3)
H9_3 H 0.7627 0.2374 0.4876
C11_3 C 0.8760(4) 0.2539(5) 0.3812(2)
H10_3 H 0.9271 0.2907 0.3648
C12_3 C 0.8228(5) 0.1772(7) 0.3550(3)
C13_3 C 0.9098(6) 0.3601(7) 0.4562(2)
C14_3 C 0.8478(6) 0.1522(8) 0.2997(3)
C15_3 C 0.8908(7) 0.1093(9) 0.2985(4)
O6_3 O 0.6289(2) 0.1095(3) 0.50485(14)
O7_3 O 0.5901(2) 0.0296(4) 0.42716(15)
C16_3 C 0.7252(3) 0.1465(4) 0.4301(2)
C17_3 C 0.7461(3) 0.1240(4) 0.3812(2)
H11_3 H 0.7093 0.0729 0.3648
C18_3 C 0.6399(4) 0.0902(6) 0.4562(2)
O9_3 O 0.9704(4) 0.4099(5) 0.07284(15)
C19_3 C 0.8535(4) 0.2748(5) 0.0699(2)
C20_3 C 0.8760(4) 0.2539(5) 0.1188(2)
H12_3 H 0.9271 0.2907 0.1352
C21_3 C 0.9098(6) 0.3601(7) 0.0438(2)
O8_3 O 0.8905(3) 0.3711(4) 0.99515(14)
O10_3 O 0.8694(3) 0.4347(4) 0.8804(3)
H14_3 H 0.8775 0.4752 0.8611
H15_3 H 0.8775 0.4023 0.8611
O11_3 O 0.8905(3) 0.5194(4) 0.99515(14)
O4_4 O 0.5194(2) 0.8905(3) 0.00485(14)
O6_4 O 0.5194(2) 0.6289(2) 0.00485(14)
O3_4 O 0.5605(3) 0.5901(2) 0.57284(15)
N1_4 N 0.8198(6) 0.9099(3) 0.7500
N2_4 N 0.8264(6) 0.9132(3) 0.6509(4)
H2_4 H 0.8801 0.9401 0.6515
H3_4 H 0.8003 0.9001 0.6194
C1_4 C 0.5787(3) 0.7252(3) 0.5699(2)
C2_4 C 0.5561(5) 0.7780(2) 0.5456(3)
H4_4 H 0.5253 0.7626 0.5124
C3_4 C 0.6221(3) 0.7461(3) 0.6188(2)
H5_4 H 0.6364 0.7093 0.6352
C4_4 C 0.6456(5) 0.8228(2) 0.6450(3)
C5_4 C 0.5497(4) 0.6399(4) 0.5438(2)
C6_4 C 0.6956(5) 0.8478(3) 0.7003(3)
C7_4 C 0.7815(6) 0.8907(3) 0.7015(4)
C8_4 C 0.6529(8) 0.8265(4) 0.7500
H6_4 H 0.5948 0.7974 0.7500
N3_4 N 0.8264(6) 0.9132(7) 0.8491(4)
H7_4 H 0.8801 0.9400 0.8485
H8_4 H 0.8003 0.9002 0.8806
C9_4 C 0.5787(3) 0.8535(4) 0.9301(2)
C10_4 C 0.5561(5) 0.7781(5) 0.9544(3)
H9_4 H 0.5253 0.7627 0.9876
C11_4 C 0.6221(3) 0.8760(4) 0.8812(2)
H10_4 H 0.6364 0.9271 0.8648
C12_4 C 0.6456(5) 0.8228(5) 0.8550(3)
C13_4 C 0.5497(4) 0.9098(6) 0.9562(2)
C14_4 C 0.6956(5) 0.8478(6) 0.7997(3)
C15_4 C 0.7815(6) 0.8908(7) 0.7985(4)
C16_4 C 0.5787(3) 0.7252(3) 0.9301(2)
C17_4 C 0.6221(3) 0.7461(3) 0.8812(2)
H11_4 H 0.6364 0.7093 0.8648
C18_4 C 0.5497(4) 0.6399(4) 0.9562(2)
O8_4 O 0.5194(2) 0.8905(3) 0.49515(14)
O9_4 O 0.5605(3) 0.9704(4) 0.57284(15)
C19_4 C 0.5787(3) 0.8535(4) 0.5699(2)
C20_4 C 0.6221(3) 0.8760(4) 0.6188(2)
H12_4 H 0.6364 0.9271 0.6352
C21_4 C 0.5497(4) 0.9098(6) 0.5438(2)
O10_4 O 0.4347(2) 0.8694(3) 0.3804(3)
H14_4 H 0.4023 0.8775 0.3611
H15_4 H 0.4752 0.8775 0.3611
O11_4 O 0.3711(2) 0.8905(3) 0.49515(14)
O3_5 O 0.9704(4) 0.5605(3) 0.07284(15)
N1_5 N 0.9099(7) 0.8198(6) 0.2500
N2_5 N 0.9132(7) 0.8264(6) 0.1509(4)
H2_5 H 0.9400 0.8801 0.1515
H3_5 H 0.9002 0.8003 0.1194
C1_5 C 0.8535(4) 0.5787(3) 0.0699(2)
C2_5 C 0.7781(5) 0.5561(5) 0.0456(3)
H4_5 H 0.7627 0.5253 0.0124
C3_5 C 0.8760(4) 0.6221(3) 0.1188(2)
H5_5 H 0.9271 0.6364 0.1352
C4_5 C 0.8228(5) 0.6456(5) 0.1450(3)
C5_5 C 0.9098(6) 0.5497(4) 0.0438(2)
C6_5 C 0.8478(6) 0.6956(5) 0.2003(3)
C7_5 C 0.8908(7) 0.7815(6) 0.2015(4)
C8_5 C 0.8264(9) 0.6529(8) 0.2500
H6_5 H 0.7974 0.5948 0.2500
O4_5 O 0.6289(4) 0.5194(2) 0.50485(14)
N3_5 N 0.9132(9) 0.8264(6) 0.3491(4)
H7_5 H 0.9401 0.8801 0.3485
H8_5 H 0.9001 0.8003 0.3806
C9_5 C 0.7252(5) 0.5787(3) 0.4301(2)
C10_5 C 0.7780(7) 0.5561(5) 0.4544(3)
H9_5 H 0.7626 0.5253 0.4876
C11_5 C 0.7461(5) 0.6221(3) 0.3812(2)
H10_5 H 0.7093 0.6364 0.3648
C12_5 C 0.8228(7) 0.6456(5) 0.3550(3)
C13_5 C 0.6399(7) 0.5497(4) 0.4562(2)
C14_5 C 0.8478(8) 0.6956(5) 0.2997(3)
C15_5 C 0.8907(9) 0.7815(6) 0.2985(4)
O6_5 O 0.8905(3) 0.5194(2) 0.50485(14)
C16_5 C 0.8535(4) 0.5787(3) 0.4301(2)
C17_5 C 0.8760(4) 0.6221(3) 0.3812(2)
H11_5 H 0.9271 0.6364 0.3648
C18_5 C 0.9098(6) 0.5497(4) 0.4562(2)
O9_5 O 0.5901(5) 0.5605(3) 0.07284(15)
C19_5 C 0.7252(5) 0.5787(3) 0.0699(2)
C20_5 C 0.7461(5) 0.6221(3) 0.1188(2)
H12_5 H 0.7093 0.6364 0.1352
C21_5 C 0.6399(7) 0.5497(4) 0.0438(2)
O4_6 O 0.1095(3) 0.6289(4) 0.00485(14)
O6_6 O 0.3711(2) 0.8905(3) 0.00485(14)
O3_6 O 0.4099(2) 0.9704(4) 0.57284(15)
N1_6 N 0.0901(3) 0.9099(7) 0.7500
N2_6 N 0.0868(3) 0.9132(7) 0.6509(4)
H2_6 H 0.0599 0.9400 0.6515
H3_6 H 0.0999 0.9002 0.6194
C1_6 C 0.2748(3) 0.8535(4) 0.5699(2)
C2_6 C 0.2220(2) 0.7781(5) 0.5456(3)
H4_6 H 0.2374 0.7627 0.5124
C3_6 C 0.2539(3) 0.8760(4) 0.6188(2)
H5_6 H 0.2907 0.9271 0.6352
C4_6 C 0.1772(2) 0.8228(5) 0.6450(3)
C5_6 C 0.3601(4) 0.9098(6) 0.5438(2)
C6_6 C 0.1522(3) 0.8478(6) 0.7003(3)
C7_6 C 0.1093(3) 0.8908(7) 0.7015(4)
C8_6 C 0.1735(4) 0.8264(9) 0.7500
H6_6 H 0.2026 0.7974 0.7500
N3_6 N 0.0868(7) 0.9132(9) 0.8491(4)
H7_6 H 0.0600 0.9401 0.8485
H8_6 H 0.0998 0.9001 0.8806
C9_6 C 0.1465(4) 0.7252(5) 0.9301(2)
C10_6 C 0.2219(5) 0.7780(7) 0.9544(3)
H9_6 H 0.2373 0.7626 0.9876
C11_6 C 0.1240(4) 0.7461(5) 0.8812(2)
H10_6 H 0.0729 0.7093 0.8648
C12_6 C 0.1772(5) 0.8228(7) 0.8550(3)
C13_6 C 0.0902(6) 0.6399(7) 0.9562(2)
C14_6 C 0.1522(6) 0.8478(8) 0.7997(3)
C15_6 C 0.1092(7) 0.8907(9) 0.7985(4)
C16_6 C 0.2748(3) 0.8535(4) 0.9301(2)
C17_6 C 0.2539(3) 0.8760(4) 0.8812(2)
H11_6 H 0.2907 0.9271 0.8648
C18_6 C 0.3601(4) 0.9098(6) 0.9562(2)
O9_6 O 0.0296(4) 0.5901(5) 0.57284(15)
C19_6 C 0.1465(4) 0.7252(5) 0.5699(2)
C20_6 C 0.1240(4) 0.7461(5) 0.6188(2)
H12_6 H 0.0729 0.7093 0.6352
C21_6 C 0.0902(6) 0.6399(7) 0.5438(2)
O2_3 O 0.5653(2) 0.4347(2) 0.6196(3)
H1_3 H 0.5977 0.4752 0.6389
H13_3 H 0.5248 0.4023 0.6389
O10_5 O 0.8694(3) 0.4347(2) 0.6196(3)
H14_5 H 0.8775 0.4023 0.6389
H15_5 H 0.8775 0.4752 0.6389
O2_4 O 0.1306(3) 0.5653(2) 0.1196(3)
H1_4 H 0.1225 0.5977 0.1389
H13_4 H 0.1225 0.5248 0.1389
O10_6 O 0.4347(4) 0.8694(3) 0.1196(3)
H14_6 H 0.4752 0.8775 0.1389
H15_6 H 0.4023 0.8775 0.1389
O2_5 O 0.5653(2) 0.1306(3) 0.6196(3)
H1_5 H 0.5248 0.1225 0.6389
H13_5 H 0.5977 0.1225 0.6389
O2_6 O 0.4347(2) 0.5653(2) 0.1196(3)
H1_6 H 0.4023 0.5248 0.1389
H13_6 H 0.4752 0.5977 0.1389
loop_
_geom_bond_atom_site_label_1
_geom_bond_atom_site_label_2
_geom_bond_site_symmetry_1
_geom_bond_site_symmetry_2
O3 C5 1_555 1_555
N1 C7 1_555 1_555
N2 H2 1_555 1_555
H3 N2 1_555 1_555
C1 C2 1_555 1_555
C2 H4 1_555 1_555
C3 C1 1_555 1_555
H5 C3 1_555 1_555
C4 C3 1_555 1_555
C5 C1 1_555 1_555
C6 C4 1_555 1_555
C7 N2 1_555 1_555
C8 C6 1_555 1_555
H6 C8 1_555 1_555
O4 C13 1_555 1_555
O5 C13 1_555 1_555
N3 H7 1_555 1_555
H8 N3 1_555 1_555
C9 C10 1_555 1_555
C10 H9 1_555 1_555
C11 C9 1_555 1_555
H10 C11 1_555 1_555
C12 C11 1_555 1_555
C13 C9 1_555 1_555
C14 C8 1_555 1_555
C15 N1 1_555 1_555
O6 C18 1_555 1_555
O7 C18 1_555 1_555
C16 C10 1_555 1_555
C17 C12 1_555 1_555
H11 C17 1_555 1_555
C18 C16 1_555 1_555
O9 C21 1_555 1_555
C19 C2 1_555 1_555
C20 C4 1_555 1_555
H12 C20 1_555 1_555
C21 C19 1_555 1_555
Cu3 O7 1_555 1_555
Cu5 O6 1_555 1_555
Cu6 O4 1_555 1_555
Cu7 O3 1_555 1_555
C6 C7 1_555 1_555
N3 C15 1_555 1_555
C12 C14 1_555 1_555
C14 C15 1_555 1_555
C16 C17 1_555 1_555
C19 C20 1_555 1_555
Cu1 O1 1_555 1_555
O2 Cu1 1_555 1_555
H1 O2 1_555 1_555
H13 O2 1_555 1_555
Cu2 O8 1_555 1_555
O10 Cu2 1_555 1_555
H14 O10 1_555 1_555
H15 O10 1_555 1_555
O11 Cu2 1_555 1_555
O12 Cu1 1_555 1_555
O13 Cu1 1_555 1_555
O15 Cu1 1_555 1_555
Cu5_2 O6_2 1_555 1_555
Cu7 O4_2 1_555 1_555
Cu1_2 O1_2 1_555 1_555
O1_2 C5_2 1_555 1_555
O2_2 Cu1_2 1_555 1_555
H1_2 O2_2 1_555 1_555
O3_2 C5_2 1_555 1_555
N1_2 C7_2 1_555 1_555
N2_2 H2_2 1_555 1_555
H3_2 N2_2 1_555 1_555
C1_2 C2_2 1_555 1_555
C2_2 H4_2 1_555 1_555
C3_2 C1_2 1_555 1_555
H5_2 C3_2 1_555 1_555
C4_2 C3_2 1_555 1_555
C5_2 C1_2 1_555 1_555
C6_2 C4_2 1_555 1_555
C7_2 N2_2 1_555 1_555
C8_2 C6_2 1_555 1_555
H6_2 C8_2 1_555 1_555
O13 C13_2 1_555 1_555
N3_2 H7_2 1_555 1_555
H8_2 N3_2 1_555 1_555
C9_2 C10_2 1_555 1_555
C10_2 H9_2 1_555 1_555
C11_2 C9_2 1_555 1_555
H10_2 C11_2 1_555 1_555
C12_2 C11_2 1_555 1_555
C13_2 C9_2 1_555 1_555
C14_2 C8_2 1_555 1_555
C15_2 N1_2 1_555 1_555
O7_2 C18_2 1_555 1_555
C16_2 C10_2 1_555 1_555
C17_2 C12_2 1_555 1_555
H11_2 C17_2 1_555 1_555
C18_2 C16_2 1_555 1_555
O8_2 C21_2 1_555 1_555
O9_2 C21_2 1_555 1_555
C19_2 C2_2 1_555 1_555
C20_2 C4_2 1_555 1_555
H12_2 C20_2 1_555 1_555
C21_2 C19_2 1_555 1_555
H13_2 O2_2 1_555 1_555
Cu3 O8_2 1_555 1_555
O10_2 Cu3 1_555 1_555
H14_2 O10_2 1_555 1_555
H15_2 O10_2 1_555 1_555
Cu5 O9_2 1_555 1_555
O11_2 Cu3 1_555 1_555
O12_2 Cu1_2 1_555 1_555
O14_2 Cu3 1_555 1_555
C6_2 C7_2 1_555 1_555
N3_2 C15_2 1_555 1_555
C12_2 C14_2 1_555 1_555
C14_2 C15_2 1_555 1_555
C16_2 C17_2 1_555 1_555
C19_2 C20_2 1_555 1_555
O3_3 C5_3 1_555 1_555
N1_3 C7_3 1_555 1_555
N2_3 H2_3 1_555 1_555
H3_3 N2_3 1_555 1_555
C1_3 C2_3 1_555 1_555
C2_3 H4_3 1_555 1_555
C3_3 C1_3 1_555 1_555
H5_3 C3_3 1_555 1_555
C4_3 C3_3 1_555 1_555
C5_3 C1_3 1_555 1_555
C6_3 C4_3 1_555 1_555
C7_3 N2_3 1_555 1_555
C8_3 C6_3 1_555 1_555
H6_3 C8_3 1_555 1_555
O4_3 C13_3 1_555 1_555
O13_2 C13_3 1_555 1_555
N3_3 H7_3 1_555 1_555
H8_3 N3_3 1_555 1_555
C9_3 C10_3 1_555 1_555
C10_3 H9_3 1_555 1_555
C11_3 C9_3 1_555 1_555
H10_3 C11_3 1_555 1_555
C12_3 C11_3 1_555 1_555
C13_3 C9_3 1_555 1_555
C14_3 C8_3 1_555 1_555
C15_3 N1_3 1_555 1_555
O6_3 C18_3 1_555 1_555
O7_3 C18_3 1_555 1_555
C16_3 C10_3 1_555 1_555
C17_3 C12_3 1_555 1_555
H11_3 C17_3 1_555 1_555
C18_3 C16_3 1_555 1_555
O9_3 C21_3 1_555 1_555
C19_3 C2_3 1_555 1_555
C20_3 C4_3 1_555 1_555
H12_3 C20_3 1_555 1_555
C21_3 C19_3 1_555 1_555
Cu6 O6_3 1_555 1_555
Cu7_2 O4_3 1_555 1_555
C6_3 C7_3 1_555 1_555
N3_3 C15_3 1_555 1_555
C12_3 C14_3 1_555 1_555
C14_3 C15_3 1_555 1_555
C16_3 C17_3 1_555 1_555
C19_3 C20_3 1_555 1_555
Cu3_2 O8_3 1_555 1_555
O10_3 Cu3_2 1_555 1_555
H14_3 O10_3 1_555 1_555
H15_3 O10_3 1_555 1_555
O11_3 Cu3_2 1_555 1_555
Cu7 O6_4 1_555 1_555
Cu8 O4_4 1_555 1_555
O11_2 C5_4 1_555 1_555
O3_4 C5_4 1_555 1_555
N1_4 C7_4 1_555 1_555
N2_4 H2_4 1_555 1_555
H3_4 N2_4 1_555 1_555
C1_4 C2_4 1_555 1_555
C2_4 H4_4 1_555 1_555
C3_4 C1_4 1_555 1_555
H5_4 C3_4 1_555 1_555
C4_4 C3_4 1_555 1_555
C5_4 C1_4 1_555 1_555
C6_4 C4_4 1_555 1_555
C7_4 N2_4 1_555 1_555
C8_4 C6_4 1_555 1_555
H6_4 C8_4 1_555 1_555
O14 C13_4 1_555 1_555
N3_4 H7_4 1_555 1_555
H8_4 N3_4 1_555 1_555
C9_4 C10_4 1_555 1_555
C10_4 H9_4 1_555 1_555
C11_4 C9_4 1_555 1_555
H10_4 C11_4 1_555 1_555
C12_4 C11_4 1_555 1_555
C13_4 C9_4 1_555 1_555
C14_4 C8_4 1_555 1_555
C15_4 N1_4 1_555 1_555
O15 C18_4 1_555 1_555
C16_4 C10_4 1_555 1_555
C17_4 C12_4 1_555 1_555
H11_4 C17_4 1_555 1_555
C18_4 C16_4 1_555 1_555
O8_4 C21_4 1_555 1_555
O9_4 C21_4 1_555 1_555
C19_4 C2_4 1_555 1_555
C20_4 C4_4 1_555 1_555
H12_4 C20_4 1_555 1_555
C21_4 C19_4 1_555 1_555
Cu4 O8_4 1_555 1_555
O10_4 Cu4 1_555 1_555
H14_4 O10_4 1_555 1_555
H15_4 O10_4 1_555 1_555
Cu5 O3_4 1_555 1_555
O11_4 Cu4 1_555 1_555
C6_4 C7_4 1_555 1_555
N3_4 C15_4 1_555 1_555
C12_4 C14_4 1_555 1_555
C14_4 C15_4 1_555 1_555
C16_4 C17_4 1_555 1_555
C19_4 C20_4 1_555 1_555
O3_5 C5_5 1_555 1_555
N1_5 C7_5 1_555 1_555
N2_5 H2_5 1_555 1_555
H3_5 N2_5 1_555 1_555
C1_5 C2_5 1_555 1_555
C2_5 H4_5 1_555 1_555
C3_5 C1_5 1_555 1_555
H5_5 C3_5 1_555 1_555
C4_5 C3_5 1_555 1_555
C5_5 C1_5 1_555 1_555
C6_5 C4_5 1_555 1_555
C7_5 N2_5 1_555 1_555
C8_5 C6_5 1_555 1_555
H6_5 C8_5 1_555 1_555
O4_5 C13_5 1_555 1_555
O14_2 C13_5 1_555 1_555
N3_5 H7_5 1_555 1_555
H8_5 N3_5 1_555 1_555
C9_5 C10_5 1_555 1_555
C10_5 H9_5 1_555 1_555
C11_5 C9_5 1_555 1_555
H10_5 C11_5 1_555 1_555
C12_5 C11_5 1_555 1_555
C13_5 C9_5 1_555 1_555
C14_5 C8_5 1_555 1_555
C15_5 N1_5 1_555 1_555
O6_5 C18_5 1_555 1_555
O15_2 C18_5 1_555 1_555
C16_5 C10_5 1_555 1_555
C17_5 C12_5 1_555 1_555
H11_5 C17_5 1_555 1_555
C18_5 C16_5 1_555 1_555
O9_5 C21_5 1_555 1_555
C19_5 C2_5 1_555 1_555
C20_5 C4_5 1_555 1_555
H12_5 C20_5 1_555 1_555
C21_5 C19_5 1_555 1_555
Cu7_2 O6_5 1_555 1_555
Cu5 O4_5 1_555 1_555
Cu7 O9_5 1_555 1_555
C6_5 C7_5 1_555 1_555
N3_5 C15_5 1_555 1_555
C12_5 C14_5 1_555 1_555
C14_5 C15_5 1_555 1_555
C16_5 C17_5 1_555 1_555
C19_5 C20_5 1_555 1_555
Cu8 O6_6 1_555 1_555
Cu5_2 O4_6 1_555 1_555
O11_4 C5_6 1_555 1_555
O3_6 C5_6 1_555 1_555
N1_6 C7_6 1_555 1_555
N2_6 H2_6 1_555 1_555
H3_6 N2_6 1_555 1_555
C1_6 C2_6 1_555 1_555
C2_6 H4_6 1_555 1_555
C3_6 C1_6 1_555 1_555
H5_6 C3_6 1_555 1_555
C4_6 C3_6 1_555 1_555
C5_6 C1_6 1_555 1_555
C6_6 C4_6 1_555 1_555
C7_6 N2_6 1_555 1_555
C8_6 C6_6 1_555 1_555
H6_6 C8_6 1_555 1_555
O14_3 C13_6 1_555 1_555
N3_6 H7_6 1_555 1_555
H8_6 N3_6 1_555 1_555
C9_6 C10_6 1_555 1_555
C10_6 H9_6 1_555 1_555
C11_6 C9_6 1_555 1_555
H10_6 C11_6 1_555 1_555
C12_6 C11_6 1_555 1_555
C13_6 C9_6 1_555 1_555
C14_6 C8_6 1_555 1_555
C15_6 N1_6 1_555 1_555
O16 C18_6 1_555 1_555
C16_6 C10_6 1_555 1_555
C17_6 C12_6 1_555 1_555
H11_6 C17_6 1_555 1_555
C18_6 C16_6 1_555 1_555
O12_2 C21_6 1_555 1_555
O9_6 C21_6 1_555 1_555
C19_6 C2_6 1_555 1_555
C20_6 C4_6 1_555 1_555
H12_6 C20_6 1_555 1_555
C21_6 C19_6 1_555 1_555
C6_6 C7_6 1_555 1_555
N3_6 C15_6 1_555 1_555
C12_6 C14_6 1_555 1_555
C14_6 C15_6 1_555 1_555
C16_6 C17_6 1_555 1_555
C19_6 C20_6 1_555 1_555
O2_3 Cu5 1_555 1_555
H1_3 O2_3 1_555 1_555
H13_3 O2_3 1_555 1_555
O10_5 Cu7_2 1_555 1_555
H14_5 O10_5 1_555 1_555
H15_5 O10_5 1_555 1_555
O2_4 Cu5_2 1_555 1_555
H1_4 O2_4 1_555 1_555
H13_4 O2_4 1_555 1_555
O10_6 Cu8 1_555 1_555
H14_6 O10_6 1_555 1_555
H15_6 O10_6 1_555 1_555
O2_5 Cu6 1_555 1_555
H1_5 O2_5 1_555 1_555
H13_5 O2_5 1_555 1_555
O2_6 Cu7 1_555 1_555
H1_6 O2_6 1_555 1_555
H13_6 O2_6 1_555 1_555

#END
