
###############################################################################
#
# This file contains modified crystal structure data generated from the
# MOF subset of the Cambridge Structural Database (CSD) v543 
# hosted by the Cambridge Crystallographic Data Centre (CCDC).
#
# This work is licensed under the Creative Commons
# Attribution-NonCommercial-ShareAlike 4.0 International License.
# To view a copy of this license, visit
# http://creativecommons.org/licenses/by-nc-sa/4.0/
# or send a letter to
# Creative Commons, PO Box 1866, Mountain View, CA 94042, USA.
#
# CIF created using the CSD Python API on 29 September 2022
# The structure has been converted into the P1 space group
# The structure has a 3D framework
# The original CSD entry ZINRIA is in the orthorhombic crystal system
# The framework has been calculated to contain at least 10.0% void space
# The void calculation uses a probe of radius 1.32A, grid spacing 0.4
# H atom positions have been added when not included in the experimental data
# Generated hydrogen atom positions removed from atoms on special positions
#
###############################################################################

data_ZINRIA
_chemical_formula_moiety         '(C46 H68 N21 O38 P14 Zn14)n'
_symmetry_cell_setting           triclinic
_symmetry_space_group_name_H-M   'P 1'
_symmetry_Int_Tables_number      1
_space_group_name_Hall           'P 1'
loop_
_symmetry_equiv_pos_site_id
_symmetry_equiv_pos_as_xyz
1 x,y,z
_cell_length_a                   15.8155(11)
_cell_length_b                   8.3224(7)
_cell_length_c                   17.1936(12)
_cell_angle_alpha                90
_cell_angle_beta                 90
_cell_angle_gamma                90
_cell_volume                     2263.07
loop_
_atom_site_label
_atom_site_type_symbol
_atom_site_fract_x
_atom_site_fract_y
_atom_site_fract_z
Zn8 Zn 0.500000 0.20313(14) 0.00478(7)
H5 H 0.376314 0.020007 0.891445
N3 N 0.500000 0.0343(12) 0.9016(5)
O5 O 0.4220(4) 0.1968(11) 0.6278(4)
P2 P 0.500000 0.1390(3) 0.58768(18)
H7 H 0.500000 0.202020 0.515375
H11 H 0.623686 0.020007 0.891445
O7 O 0.5780(4) 0.1968(11) 0.6278(4)
Zn5 Zn 0.68164(5) 0.28355(10) 0.58791(4)
Zn7 Zn 0.31836(5) 0.28355(10) 0.58791(4)
C1 C 0.2187(5) 0.7618(12) 0.7582(5)
H1 H 0.164428 0.724678 0.768739
C2 C 0.2782(5) 0.7895(11) 0.8118(4)
H2 H 0.273755 0.775324 0.865332
C3 C 0.3280(4) 0.8453(10) 0.6954(4)
H3 H 0.364621 0.876806 0.655994
C4 C 0.500000 0.8438(14) 0.7692(5)
H4 H 0.500000 0.781130 0.724352
C5 C 0.4255(4) 0.8917(9) 0.8035(4)
C6 C 0.4271(4) 0.9874(9) 0.8692(4)
N1 N 0.2492(4) 0.7961(8) 0.6852(3)
N2 N 0.3468(3) 0.8427(8) 0.7714(3)
O1 O 0.2362(4) 0.6760(9) 0.5029(4)
O2 O 0.3881(4) 0.7284(9) 0.4736(5)
O3 O 0.3495(3) 0.4976(7) 0.5577(4)
O4 O 0.500000 0.9621(10) 0.5810(6)
O6 O 0.500000 0.6244(9) 0.6036(4)
P1 P 0.32288(11) 0.6065(3) 0.49192(12)
H6 H 0.317168 0.509850 0.429038
Zn1 Zn 0.18164(5) 0.78355(10) 0.58791(4)
Zn2 Zn 0.500000 0.79687(14) 0.50478(7)
C7 C 0.7813(5) 0.7618(12) 0.7582(5)
H8 H 0.835572 0.724678 0.768739
C8 C 0.7218(5) 0.7895(11) 0.8118(4)
H9 H 0.726245 0.775324 0.865332
C9 C 0.6720(4) 0.8453(10) 0.6954(4)
H10 H 0.635379 0.876806 0.655994
C10 C 0.5745(4) 0.8917(9) 0.8035(4)
C11 C 0.5729(4) 0.9874(9) 0.8692(4)
N4 N 0.7508(4) 0.7961(8) 0.6852(3)
N5 N 0.6532(3) 0.8427(8) 0.7714(3)
O8 O 0.7638(4) 0.6760(9) 0.5029(4)
O9 O 0.6119(4) 0.7284(9) 0.4736(5)
O10 O 0.6505(3) 0.4976(7) 0.5577(4)
P3 P 0.67712(11) 0.6065(3) 0.49192(12)
H12 H 0.682832 0.509850 0.429038
Zn3 Zn 0.81836(5) 0.78355(10) 0.58791(4)
N6 N 0.500000 0.9657(12) 0.4016(5)
O11 O 0.8495(3) 0.9976(7) 0.5577(4)
O12 O 0.1505(3) 0.9976(7) 0.5577(4)
O13 O 0.9220(4) 0.6968(11) 0.6278(4)
O14 O 0.0780(4) 0.6968(11) 0.6278(4)
C1_2 C 0.7813(5) 0.2382(12) 0.2582(5)
H1_2 H 0.835572 0.275322 0.268739
C2_2 C 0.7218(5) 0.2105(11) 0.3118(4)
H2_2 H 0.726245 0.224676 0.365332
C3_2 C 0.6720(4) 0.1547(10) 0.1954(4)
H3_2 H 0.635379 0.123194 0.155994
C4_2 C 0.500000 0.1562(14) 0.2692(5)
H4_2 H 0.500000 0.218870 0.224352
C5_2 C 0.5745(4) 0.1083(9) 0.3035(4)
C6_2 C 0.5729(4) 0.0126(9) 0.3692(4)
N1_2 N 0.7508(4) 0.2039(8) 0.1852(3)
N2_2 N 0.6532(3) 0.1573(8) 0.2714(3)
O1_2 O 0.7638(4) 0.3240(9) 0.0029(4)
O3_2 O 0.6505(3) 0.5024(7) 0.0577(4)
O4_2 O 0.500000 0.0379(10) 0.0810(6)
O6_2 O 0.500000 0.3756(9) 0.1036(4)
Zn1_2 Zn 0.81836(5) 0.21645(10) 0.08791(4)
C7_2 C 0.2187(5) 0.2382(12) 0.2582(5)
H8_2 H 0.164428 0.275322 0.268739
C8_2 C 0.2782(5) 0.2105(11) 0.3118(4)
H9_2 H 0.273755 0.224676 0.365332
C9_2 C 0.3280(4) 0.1547(10) 0.1954(4)
H10_2 H 0.364621 0.123194 0.155994
C10_2 C 0.4255(4) 0.1083(9) 0.3035(4)
C11_2 C 0.4271(4) 0.0126(9) 0.3692(4)
N4_2 N 0.2492(4) 0.2039(8) 0.1852(3)
N5_2 N 0.3468(3) 0.1573(8) 0.2714(3)
O8_2 O 0.2362(4) 0.3240(9) 0.0029(4)
O10_2 O 0.3495(3) 0.5024(7) 0.0577(4)
Zn3_2 Zn 0.18164(5) 0.21645(10) 0.08791(4)
O11_2 O 0.1505(3) 0.0024(7) 0.0577(4)
O12_2 O 0.8495(3) 0.0024(7) 0.0577(4)
O13_2 O 0.0780(4) 0.3032(11) 0.1278(4)
O14_2 O 0.9220(4) 0.3032(11) 0.1278(4)
Zn4 Zn 0.31836(5) 0.71645(10) 0.08791(4)
Zn6 Zn 0.68164(5) 0.71645(10) 0.08791(4)
O2_2 O 0.6119(4) 0.2716(9) 0.9736(5)
P1_2 P 0.67712(11) 0.3935(3) 0.99192(12)
H6_2 H 0.682832 0.490150 0.929038
O9_2 O 0.3881(4) 0.2716(9) 0.9736(5)
P3_2 P 0.32288(11) 0.3935(3) 0.99192(12)
H12_2 H 0.317168 0.490150 0.929038
H5_2 H 0.623686 0.979993 0.391445
O5_2 O 0.5780(4) 0.8032(11) 0.1278(4)
P2_2 P 0.500000 0.8610(3) 0.08768(18)
H7_2 H 0.500000 0.797980 0.015375
H11_2 H 0.376314 0.979993 0.391445
O7_2 O 0.4220(4) 0.8032(11) 0.1278(4)
Zn8_2 Zn 0.000000 0.70313(14) 0.00478(7)
C4_3 C 0.000000 0.3438(14) 0.7692(5)
H4_3 H 0.000000 0.281130 0.724352
N3_2 N -0.000000 0.5343(12) 0.9016(5)
O4_3 O 0.000000 0.4621(10) 0.5810(6)
O6_3 O 0.000000 0.1244(9) 0.6036(4)
P2_3 P 0.000000 0.6390(3) 0.58768(18)
H7_3 H 0.000000 0.702020 0.515375
Zn2_2 Zn 0.000000 0.29687(14) 0.50478(7)
C7_3 C 0.2813(5) 0.2618(12) 0.7582(5)
H8_3 H 0.335572 0.224678 0.768739
C8_3 C 0.2218(5) 0.2895(11) 0.8118(4)
H9_3 H 0.226245 0.275324 0.865332
C9_3 C 0.1720(4) 0.3453(10) 0.6954(4)
H10_3 H 0.135379 0.376806 0.655994
C10_3 C 0.0745(4) 0.3917(9) 0.8035(4)
C11_3 C 0.0729(4) 0.4874(9) 0.8692(4)
H11_3 H 0.123686 0.520007 0.891445
N4_3 N 0.2508(4) 0.2961(8) 0.6852(3)
N5_3 N 0.1532(3) 0.3427(8) 0.7714(3)
O8_3 O 0.2638(4) 0.1760(9) 0.5029(4)
O9_3 O 0.1119(4) 0.2284(9) 0.4736(5)
P3_3 P 0.17712(11) 0.1065(3) 0.49192(12)
H12_3 H 0.182832 0.009850 0.429038
N6_2 N 0.000000 0.4657(12) 0.4016(5)
H14 H 0.0541537 0.133438 0.632497
Zn8_3 Zn 1.000000 0.70313(14) 0.00478(7)
C1_3 C 0.7187(5) 0.2618(12) 0.7582(5)
H1_3 H 0.664428 0.224678 0.768739
C2_3 C 0.7782(5) 0.2895(11) 0.8118(4)
H2_3 H 0.773755 0.275324 0.865332
C3_3 C 0.8280(4) 0.3453(10) 0.6954(4)
H3_3 H 0.864621 0.376806 0.655994
C4_4 C 1.000000 0.3438(14) 0.7692(5)
H4_4 H 1.000000 0.281130 0.724352
C5_3 C 0.9255(4) 0.3917(9) 0.8035(4)
C6_3 C 0.9271(4) 0.4874(9) 0.8692(4)
H5_3 H 0.876314 0.520007 0.891445
N1_3 N 0.7492(4) 0.2961(8) 0.6852(3)
N2_3 N 0.8468(3) 0.3427(8) 0.7714(3)
N3_3 N 1.000000 0.5343(12) 0.9016(5)
O1_3 O 0.7362(4) 0.1760(9) 0.5029(4)
O2_3 O 0.8881(4) 0.2284(9) 0.4736(5)
O4_4 O 1.000000 0.4621(10) 0.5810(6)
O6_4 O 1.000000 0.1244(9) 0.6036(4)
P1_3 P 0.82288(11) 0.1065(3) 0.49192(12)
H6_3 H 0.817168 0.009850 0.429038
P2_4 P 1.000000 0.6390(3) 0.58768(18)
H7_4 H 1.000000 0.702020 0.515375
Zn2_3 Zn 1.000000 0.29687(14) 0.50478(7)
N6_3 N 1.000000 0.4657(12) 0.4016(5)
H13 H 0.993626 0.0133001 0.583371
C1_4 C 0.2813(5) 0.7382(12) 0.2582(5)
H1_4 H 0.335572 0.775322 0.268739
C2_4 C 0.2218(5) 0.7105(11) 0.3118(4)
H2_4 H 0.226245 0.724676 0.365332
C3_4 C 0.1720(4) 0.6547(10) 0.1954(4)
H3_4 H 0.135379 0.623194 0.155994
C4_5 C -0.000000 0.6562(14) 0.2692(5)
H4_5 H -0.000000 0.718870 0.224352
C5_4 C 0.0745(4) 0.6083(9) 0.3035(4)
C6_4 C 0.0729(4) 0.5126(9) 0.3692(4)
H5_4 H 0.123686 0.479993 0.391445
N1_4 N 0.2508(4) 0.7039(8) 0.1852(3)
N2_4 N 0.1532(3) 0.6573(8) 0.2714(3)
O1_4 O 0.2638(4) 0.8240(9) 0.0029(4)
O4_5 O -0.000000 0.5379(10) 0.0810(6)
O6_5 O -0.000000 0.8756(9) 0.1036(4)
P2_5 P -0.000000 0.3610(3) 0.08768(18)
H7_5 H -0.000000 0.297980 0.015375
H13_2 H 0.00637351 0.9867 0.0833711
O2_4 O 0.1119(4) 0.7716(9) 0.9736(5)
P1_4 P 0.17712(11) 0.8935(3) 0.99192(12)
H6_4 H 0.182832 0.990150 0.929038
C4_6 C 1.000000 0.6562(14) 0.2692(5)
H4_6 H 1.000000 0.718870 0.224352
O4_6 O 1.000000 0.5379(10) 0.0810(6)
O6_6 O 1.000000 0.8756(9) 0.1036(4)
P2_6 P 1.000000 0.3610(3) 0.08768(18)
H7_6 H 1.000000 0.297980 0.015375
C7_4 C 0.7187(5) 0.7382(12) 0.2582(5)
H8_4 H 0.664428 0.775322 0.268739
C8_4 C 0.7782(5) 0.7105(11) 0.3118(4)
H9_4 H 0.773755 0.724676 0.365332
C9_4 C 0.8280(4) 0.6547(10) 0.1954(4)
H10_4 H 0.864621 0.623194 0.155994
C10_4 C 0.9255(4) 0.6083(9) 0.3035(4)
C11_4 C 0.9271(4) 0.5126(9) 0.3692(4)
H11_4 H 0.876314 0.479993 0.391445
N4_4 N 0.7492(4) 0.7039(8) 0.1852(3)
N5_4 N 0.8468(3) 0.6573(8) 0.2714(3)
O8_4 O 0.7362(4) 0.8240(9) 0.0029(4)
H14_2 H 0.945846 0.866562 0.132497
O9_4 O 0.8881(4) 0.7716(9) 0.9736(5)
P3_4 P 0.82288(11) 0.8935(3) 0.99192(12)
H12_4 H 0.817168 0.990150 0.929038
H14_3 H 0.0541537 0.866562 0.132497
H13_3 H 0.993626 0.9867 0.0833711
H13_4 H 0.00637351 0.0133001 0.583371
H14_4 H 0.945846 0.133438 0.632497
loop_
_geom_bond_atom_site_label_1
_geom_bond_atom_site_label_2
_geom_bond_site_symmetry_1
_geom_bond_site_symmetry_2
O5 P2 1_555 1_555
P2 H7 1_555 1_555
O7 P2 1_555 1_555
Zn5 O7 1_555 1_555
Zn7 O5 1_555 1_555
C1 H1 1_555 1_555
C2 C1 1_555 1_555
H2 C2 1_555 1_555
C3 H3 1_555 1_555
C4 H4 1_555 1_555
C5 C4 1_555 1_555
C6 C5 1_555 1_555
N1 C1 1_555 1_555
N2 C2 1_555 1_555
O1 P1 1_555 1_555
O2 P1 1_555 1_555
O3 P1 1_555 1_555
O6 Zn2 1_555 1_555
P1 H6 1_555 1_555
Zn1 N1 1_555 1_555
Zn2 O2 1_555 1_555
C7 H8 1_555 1_555
C8 C7 1_555 1_555
H9 C8 1_555 1_555
C9 H10 1_555 1_555
C10 C4 1_555 1_555
N4 C7 1_555 1_555
N5 C8 1_555 1_555
O8 P3 1_555 1_555
O9 Zn2 1_555 1_555
O10 P3 1_555 1_555
P3 O9 1_555 1_555
H12 P3 1_555 1_555
Zn3 N4 1_555 1_555
N6 Zn2 1_555 1_555
O11 Zn3 1_555 1_555
O12 Zn1 1_555 1_555
O13 Zn3 1_555 1_555
O14 Zn1 1_555 1_555
Zn5 O10 1_555 1_555
Zn7 O3 1_555 1_555
C3 N1 1_555 1_555
C3 N2 1_555 1_555
C5 N2 1_555 1_555
O1 Zn1 1_555 1_555
O4 Zn2 1_555 1_555
C9 N4 1_555 1_555
C9 N5 1_555 1_555
C10 C11 1_555 1_555
C10 N5 1_555 1_555
O8 Zn3 1_555 1_555
C1_2 H1_2 1_555 1_555
C2_2 C1_2 1_555 1_555
H2_2 C2_2 1_555 1_555
C3_2 H3_2 1_555 1_555
C4_2 H4_2 1_555 1_555
C5_2 C4_2 1_555 1_555
C6_2 C5_2 1_555 1_555
N1_2 C1_2 1_555 1_555
N2_2 C2_2 1_555 1_555
O6_2 Zn8 1_555 1_555
Zn1_2 N1_2 1_555 1_555
C7_2 H8_2 1_555 1_555
C8_2 C7_2 1_555 1_555
H9_2 C8_2 1_555 1_555
C9_2 H10_2 1_555 1_555
C10_2 C4_2 1_555 1_555
N4_2 C7_2 1_555 1_555
N5_2 C8_2 1_555 1_555
Zn3_2 N4_2 1_555 1_555
O11_2 Zn3_2 1_555 1_555
O12_2 Zn1_2 1_555 1_555
O13_2 Zn3_2 1_555 1_555
O14_2 Zn1_2 1_555 1_555
Zn4 O10_2 1_555 1_555
Zn6 O3_2 1_555 1_555
C3_2 N1_2 1_555 1_555
C3_2 N2_2 1_555 1_555
C5_2 N2_2 1_555 1_555
O1_2 Zn1_2 1_555 1_555
O4_2 Zn8 1_555 1_555
C9_2 N4_2 1_555 1_555
C9_2 N5_2 1_555 1_555
C10_2 C11_2 1_555 1_555
C10_2 N5_2 1_555 1_555
O8_2 Zn3_2 1_555 1_555
O2_2 P1_2 1_555 1_555
P1_2 H6_2 1_555 1_555
P3_2 O9_2 1_555 1_555
H12_2 P3_2 1_555 1_555
O5_2 P2_2 1_555 1_555
P2_2 H7_2 1_555 1_555
O7_2 P2_2 1_555 1_555
Zn4 O7_2 1_555 1_555
Zn6 O5_2 1_555 1_555
C4_3 H4_3 1_555 1_555
O4_3 P2_3 1_555 1_555
O6_3 Zn2_2 1_555 1_555
P2_3 H7_3 1_555 1_555
C7_3 H8_3 1_555 1_555
C8_3 C7_3 1_555 1_555
H9_3 C8_3 1_555 1_555
C9_3 H10_3 1_555 1_555
C10_3 C4_3 1_555 1_555
C11_3 N3_2 1_555 1_555
H11_3 C11_3 1_555 1_555
N4_3 C7_3 1_555 1_555
N5_3 C8_3 1_555 1_555
O14 P2_3 1_555 1_555
O8_3 P3_3 1_555 1_555
O9_3 Zn2_2 1_555 1_555
P3_3 O9_3 1_555 1_555
H12_3 P3_3 1_555 1_555
Zn7 N4_3 1_555 1_555
N6_2 Zn2_2 1_555 1_555
O4_3 Zn2_2 1_555 1_555
C9_3 N4_3 1_555 1_555
C9_3 N5_3 1_555 1_555
C10_3 C11_3 1_555 1_555
C10_3 N5_3 1_555 1_555
O8_3 Zn7 1_555 1_555
O6_3 H14 1_555 1_555
C1_3 H1_3 1_555 1_555
C2_3 C1_3 1_555 1_555
H2_3 C2_3 1_555 1_555
C3_3 H3_3 1_555 1_555
C4_4 H4_4 1_555 1_555
C5_3 C4_4 1_555 1_555
C6_3 C5_3 1_555 1_555
H5_3 C6_3 1_555 1_555
N1_3 C1_3 1_555 1_555
N2_3 C2_3 1_555 1_555
N3_3 C6_3 1_555 1_555
O1_3 P1_3 1_555 1_555
O2_3 P1_3 1_555 1_555
O4_4 P2_4 1_555 1_555
O13 P2_4 1_555 1_555
O6_4 Zn2_3 1_555 1_555
P1_3 H6_3 1_555 1_555
P2_4 H7_4 1_555 1_555
Zn5 N1_3 1_555 1_555
Zn2_3 O2_3 1_555 1_555
N6_3 Zn2_3 1_555 1_555
C3_3 N1_3 1_555 1_555
C3_3 N2_3 1_555 1_555
C5_3 N2_3 1_555 1_555
O1_3 Zn5 1_555 1_555
O4_4 Zn2_3 1_555 1_555
O6_4 H13 1_555 1_555
C1_4 H1_4 1_555 1_555
C2_4 C1_4 1_555 1_555
H2_4 C2_4 1_555 1_555
C3_4 H3_4 1_555 1_555
C4_5 H4_5 1_555 1_555
C5_4 C4_5 1_555 1_555
C6_4 C5_4 1_555 1_555
H5_4 C6_4 1_555 1_555
N1_4 C1_4 1_555 1_555
N2_4 C2_4 1_555 1_555
N6_2 C6_4 1_555 1_555
O4_5 P2_5 1_555 1_555
O13_2 P2_5 1_555 1_555
O6_5 Zn8_2 1_555 1_555
P2_5 H7_5 1_555 1_555
Zn4 N1_4 1_555 1_555
C3_4 N1_4 1_555 1_555
C3_4 N2_4 1_555 1_555
C5_4 N2_4 1_555 1_555
O1_4 Zn4 1_555 1_555
O4_5 Zn8_2 1_555 1_555
O6_5 H13_2 1_555 1_555
O2_4 P1_4 1_555 1_555
P1_4 H6_4 1_555 1_555
C4_6 H4_6 1_555 1_555
O4_6 P2_6 1_555 1_555
O6_6 Zn8_3 1_555 1_555
P2_6 H7_6 1_555 1_555
C7_4 H8_4 1_555 1_555
C8_4 C7_4 1_555 1_555
H9_4 C8_4 1_555 1_555
C9_4 H10_4 1_555 1_555
C10_4 C4_6 1_555 1_555
C11_4 N6_3 1_555 1_555
H11_4 C11_4 1_555 1_555
N4_4 C7_4 1_555 1_555
N5_4 C8_4 1_555 1_555
O14_2 P2_6 1_555 1_555
Zn6 N4_4 1_555 1_555
O4_6 Zn8_3 1_555 1_555
C9_4 N4_4 1_555 1_555
C9_4 N5_4 1_555 1_555
C10_4 C11_4 1_555 1_555
C10_4 N5_4 1_555 1_555
O8_4 Zn6 1_555 1_555
O6_6 H14_2 1_555 1_555
P3_4 O9_4 1_555 1_555
H12_4 P3_4 1_555 1_555
O6_5 H14_3 1_555 1_555
O6_6 H13_3 1_555 1_555
O6_3 H13_4 1_555 1_555
O6_4 H14_4 1_555 1_555

#END
