
###############################################################################
#
# This file contains modified crystal structure data generated from the
# MOF subset of the Cambridge Structural Database (CSD) v543 
# hosted by the Cambridge Crystallographic Data Centre (CCDC).
#
# This work is licensed under the Creative Commons
# Attribution-NonCommercial-ShareAlike 4.0 International License.
# To view a copy of this license, visit
# http://creativecommons.org/licenses/by-nc-sa/4.0/
# or send a letter to
# Creative Commons, PO Box 1866, Mountain View, CA 94042, USA.
#
# CIF created using the CSD Python API on 29 September 2022
# The structure has been converted into the P1 space group
# The structure has a 3D framework
# The original CSD entry ZIPRUO is in the triclinic crystal system
# The framework has been calculated to contain at least 10.0% void space
# The void calculation uses a probe of radius 1.32A, grid spacing 0.4
# H atom positions have been added when not included in the experimental data
# Generated hydrogen atom positions removed from atoms on special positions
#
###############################################################################

data_ZIPRUO
_chemical_formula_moiety         '(C56 H66 Co4 N14 O24)n'
_symmetry_cell_setting           triclinic
_symmetry_space_group_name_H-M   'P 1'
_symmetry_Int_Tables_number      1
_space_group_name_Hall           'P 1'
loop_
_symmetry_equiv_pos_site_id
_symmetry_equiv_pos_as_xyz
1 x,y,z
_cell_length_a                   9.9742(4)
_cell_length_b                   14.8442(6)
_cell_length_c                   15.6095(7)
_cell_angle_alpha                99.186(3)
_cell_angle_beta                 90.997(3)
_cell_angle_gamma                107.531(3)
_cell_volume                     2170.25
loop_
_atom_site_label
_atom_site_type_symbol
_atom_site_fract_x
_atom_site_fract_y
_atom_site_fract_z
N1 N 0.3224(3) 0.4348(2) 0.13679(17)
O4 O 0.3884(2) 0.55483(15) 0.00170(16)
C2 C 0.3345(4) 0.3642(3) 0.1778(2)
C3 C 0.3180(4) 0.5146(3) 0.1866(2)
C5 C 0.3379(5) 0.3717(3) 0.2672(2)
H1 H 0.340752 0.307919 0.144487
C6 C 0.3222(5) 0.5281(3) 0.2762(2)
H2 H 0.311568 0.564769 0.159490
C9 C 0.3318(4) 0.4553(3) 0.3182(2)
H3 H 0.344324 0.320713 0.293025
H4 H 0.318572 0.585876 0.307949
C13 C 0.3318(4) 0.4693(3) 0.4141(2)
N3 N 0.3321(4) 0.4002(3) 0.4526(2)
N4 N 0.3280(4) 0.4263(3) 0.5437(2)
C17 C 0.3045(5) 0.3538(4) 0.5812(3)
C20 C 0.2987(4) 0.3688(3) 0.6762(2)
C23 C 0.3070(4) 0.4569(3) 0.7248(2)
C24 C 0.2902(5) 0.2938(3) 0.7202(3)
H11 H 0.313441 0.509393 0.697725
C26 C 0.3056(4) 0.4661(3) 0.8145(2)
C27 C 0.2899(4) 0.3080(3) 0.8100(2)
H12 H 0.284559 0.233617 0.689413
H13 H 0.308528 0.525230 0.846481
H14 H 0.282413 0.256323 0.838392
N7 N 0.3001(3) 0.3937(2) 0.85748(17)
Co5 Co 0.30641(4) 0.41178(3) 0.99687(2)
H29 H 0.289057 0.282423 0.543979
H30 H 0.331546 0.537908 0.451204
O1 O 0.1198(2) 0.28082(16) 0.99070(15)
O2 O 0.0923(2) 0.41978(15) 0.98570(17)
O3 O 0.4248(2) 0.31935(16) 0.99097(15)
C1 C 0.0401(3) 0.3303(2) 0.98115(19)
O11 O 0.1122(3) 0.03393(19) 0.76588(19)
O15 O 0.0754(2) 0.94377(15) 0.08997(15)
C35 C 0.0797(3) 0.8692(2) 0.1188(2)
O20 O 0.0245(3) 0.84166(17) 0.18373(17)
C36 C 0.1695(3) 0.8132(2) 0.0734(2)
C37 C 0.1142(3) 0.7158(2) 0.03640(19)
C38 C 0.3137(3) 0.8568(2) 0.0802(3)
C40 C 0.2074(3) 0.6638(2) 0.01509(19)
C41 C 0.4061(3) 0.8042(2) 0.0556(3)
H19 H 0.349790 0.922218 0.101547
C42 C 0.3518(3) 0.7059(2) 0.0255(2)
C43 C 0.5638(4) 0.8621(3) 0.0699(5)
C44 C 0.4446(3) 0.6424(2) 0.01030(18)
O23 O 0.6176(4) 0.8931(3) 0.0058(4)
O24 O 0.6204(3) 0.8776(3) 0.1460(3)
O27 O 0.5752(2) 0.68065(16) 0.00903(15)
Co8 Co 0.69359(4) 0.58822(3) 0.00313(2)
H20 H 0.171440 0.598596 0.993086
H5 H 0.828560 0.401404 0.006914
C4 C 0.8858(3) 0.2842(2) 0.96360(19)
C7 C 0.7926(3) 0.3362(2) 0.98491(19)
C8 C 0.8305(3) 0.1868(2) 0.9266(2)
C10 C 0.6482(3) 0.2941(2) 0.9745(2)
C11 C 0.6863(3) 0.1432(2) 0.9198(3)
C12 C 0.9203(3) 0.1308(2) 0.8812(2)
C14 C 0.5939(3) 0.1958(2) 0.9444(3)
C15 C 0.5554(3) 0.3576(2) 0.98970(18)
H6 H 0.650210 0.077782 0.898453
O5 O 0.9755(3) 0.15834(17) 0.81627(17)
O6 O 0.9246(2) 0.05623(15) 0.91003(15)
C16 C 0.4362(4) 0.1379(3) 0.9301(5)
O7 O 0.3824(4) 0.1069(3) 0.9942(4)
O8 O 0.3796(3) 0.1224(3) 0.8540(3)
O14 O 0.6116(2) 0.44517(15) 0.99830(16)
O18 O 0.8878(3) 0.96607(19) 0.23412(19)
C39 C 0.9599(3) 0.6697(2) 0.01885(19)
O21 O 0.8802(2) 0.71918(16) 0.00930(15)
O22 O 0.9077(2) 0.58022(15) 0.01430(17)
N11 N 0.6999(3) 0.6063(2) 0.14252(17)
H43 H 0.844468 0.99336 0.0277687
N10 N 0.6776(3) 0.5652(2) 0.86321(17)
C45 C 0.6655(4) 0.6358(3) 0.8222(2)
C46 C 0.6820(4) 0.4854(3) 0.8134(2)
C47 C 0.6621(5) 0.6283(3) 0.7328(2)
H21 H 0.659248 0.692081 0.855513
C48 C 0.6778(5) 0.4719(3) 0.7238(2)
H22 H 0.688432 0.435231 0.840510
C49 C 0.6682(4) 0.5447(3) 0.6818(2)
H23 H 0.655676 0.679287 0.706975
H24 H 0.681428 0.414124 0.692051
C50 C 0.6682(4) 0.5307(3) 0.5859(2)
N12 N 0.6679(4) 0.5998(3) 0.5474(2)
N13 N 0.6720(4) 0.5737(3) 0.4563(2)
C51 C 0.6955(5) 0.6462(4) 0.4188(3)
C52 C 0.7013(4) 0.6312(3) 0.3238(2)
C53 C 0.6930(4) 0.5431(3) 0.2752(2)
C54 C 0.7098(5) 0.7062(3) 0.2798(3)
H25 H 0.686559 0.490607 0.302275
C55 C 0.6944(4) 0.5339(3) 0.1855(2)
C56 C 0.7101(4) 0.6920(3) 0.1900(2)
H26 H 0.715441 0.766383 0.310587
H27 H 0.691472 0.474770 0.153519
H28 H 0.717587 0.743677 0.161608
H49 H 0.668454 0.462092 0.548796
H50 H 0.710943 0.717577 0.456021
H43_2 H 0.155532 0.00664003 0.972231
O10 O 0.1446(2) 0.95149(16) 0.92449(15)
N5 N 0.0132(3) 0.8174(2) 0.76142(19)
C18 C 0.0442(4) 0.7481(3) 0.7950(3)
H7 H 0.060775 0.756300 0.854937
C21 C 0.0527(5) 0.6659(3) 0.7451(3)
C22 C 0.0025(5) 0.7239(3) 0.6205(2)
C25 C 0.0311(4) 0.6530(3) 0.6553(2)
H9 H 0.072733 0.618798 0.771091
C28 C 0.0301(5) 0.5593(3) 0.6023(3)
N6 N 0.0001(4) 0.5459(2) 0.5206(2)
N8 N -0.0001(4) 0.4541(2) 0.4794(2)
C34 C 0.0057(5) 0.1957(3) 0.3256(3)
H16 H 0.011368 0.281986 0.439449
H18 H 0.025439 0.147818 0.350520
Co6 Co 0.02498(5) 0.06104(3) 0.16127(3)
O16 O 0.1571(2) 0.14442(16) 0.08035(16)
O19 O 0.2010(3) 0.0792(2) 0.2461(2)
H38 H 0.15619 0.996848 0.722759
H44 H 0.0542521 0.504315 0.632613
Co2 Co 0.97502(5) 0.93896(3) 0.83873(3)
O9 O 0.8429(2) 0.85558(16) 0.91965(16)
O12 O 0.7990(3) 0.9208(2) 0.7539(2)
C19 C 0.9943(5) 0.8043(3) 0.6744(3)
H8 H 0.974561 0.852182 0.649480
H10 H 0.988632 0.718014 0.560551
N6_2 N 1.0001(4) 0.5459(2) 0.5206(2)
N8_2 N 0.9999(4) 0.4541(2) 0.4794(2)
C29 C 0.9699(5) 0.4407(3) 0.3977(3)
C30 C 0.9689(4) 0.3470(3) 0.3447(2)
C31 C 0.9473(5) 0.3341(3) 0.2549(3)
C32 C 0.9975(5) 0.2761(3) 0.3795(2)
C33 C 0.9558(4) 0.2519(3) 0.2050(3)
H15 H 0.927267 0.381202 0.228909
N9 N 0.9868(3) 0.1826(2) 0.23858(19)
H17 H 0.939225 0.243700 0.145063
O17 O 0.8554(2) 0.04851(16) 0.07551(15)
H41 H 0.945748 0.495685 0.367387
H38_2 H 0.84381 0.00315208 0.277241
loop_
_geom_bond_atom_site_label_1
_geom_bond_atom_site_label_2
_geom_bond_site_symmetry_1
_geom_bond_site_symmetry_2
C2 N1 1_555 1_555
C3 N1 1_555 1_555
C5 C2 1_555 1_555
H1 C2 1_555 1_555
C6 C3 1_555 1_555
H2 C3 1_555 1_555
C9 C5 1_555 1_555
H3 C5 1_555 1_555
H4 C6 1_555 1_555
C13 C9 1_555 1_555
N3 C13 1_555 1_555
N4 N3 1_555 1_555
C17 N4 1_555 1_555
C20 C17 1_555 1_555
C23 C20 1_555 1_555
C24 C20 1_555 1_555
H11 C23 1_555 1_555
C26 C23 1_555 1_555
C27 C24 1_555 1_555
H12 C24 1_555 1_555
H13 C26 1_555 1_555
H14 C27 1_555 1_555
N7 C26 1_555 1_555
Co5 N7 1_555 1_555
C6 C9 1_555 1_555
C27 N7 1_555 1_555
C17 H29 1_555 1_555
C13 H30 1_555 1_555
Co5 O1 1_555 1_555
O1 C1 1_555 1_555
O2 Co5 1_555 1_555
O3 Co5 1_555 1_555
C1 O2 1_555 1_555
C35 O15 1_555 1_555
O20 C35 1_555 1_555
C36 C35 1_555 1_555
C37 C36 1_555 1_555
C38 C36 1_555 1_555
C40 C37 1_555 1_555
C41 C38 1_555 1_555
H19 C38 1_555 1_555
C42 C40 1_555 1_555
C43 C41 1_555 1_555
C44 C42 1_555 1_555
O23 C43 1_555 1_555
O24 C43 1_555 1_555
O27 C44 1_555 1_555
O4 C44 1_555 1_555
Co8 O27 1_555 1_555
C41 C42 1_555 1_555
C7 C4 1_555 1_555
C8 C4 1_555 1_555
C10 C7 1_555 1_555
C11 C8 1_555 1_555
C12 C8 1_555 1_555
C14 C10 1_555 1_555
C15 C10 1_555 1_555
H6 C11 1_555 1_555
O5 C12 1_555 1_555
O6 C12 1_555 1_555
C16 C14 1_555 1_555
O7 C16 1_555 1_555
O8 C16 1_555 1_555
O3 C15 1_555 1_555
O14 C15 1_555 1_555
C11 C14 1_555 1_555
O21 C39 1_555 1_555
O22 C39 1_555 1_555
Co8 O21 1_555 1_555
N11 Co8 1_555 1_555
O22 Co8 1_555 1_555
C45 N10 1_555 1_555
C46 N10 1_555 1_555
C47 C45 1_555 1_555
H21 C45 1_555 1_555
C48 C46 1_555 1_555
H22 C46 1_555 1_555
C49 C47 1_555 1_555
H23 C47 1_555 1_555
H24 C48 1_555 1_555
C50 C49 1_555 1_555
N12 C50 1_555 1_555
N13 N12 1_555 1_555
C51 N13 1_555 1_555
C52 C51 1_555 1_555
C53 C52 1_555 1_555
C54 C52 1_555 1_555
H25 C53 1_555 1_555
C55 C53 1_555 1_555
C56 C54 1_555 1_555
H26 C54 1_555 1_555
H27 C55 1_555 1_555
N11 C55 1_555 1_555
H28 C56 1_555 1_555
C48 C49 1_555 1_555
C56 N11 1_555 1_555
C50 H49 1_555 1_555
C51 H50 1_555 1_555
C18 N5 1_555 1_555
H7 C18 1_555 1_555
C21 C18 1_555 1_555
C25 C21 1_555 1_555
H9 C21 1_555 1_555
C28 C25 1_555 1_555
N6 C28 1_555 1_555
N8 N6 1_555 1_555
H18 C34 1_555 1_555
O16 Co6 1_555 1_555
O19 Co6 1_555 1_555
C22 C25 1_555 1_555
C28 H44 1_555 1_555
O9 Co2 1_555 1_555
O12 Co2 1_555 1_555
H8 C19 1_555 1_555
N8_2 N6_2 1_555 1_555
C29 N8_2 1_555 1_555
C30 C29 1_555 1_555
C31 C30 1_555 1_555
C32 C30 1_555 1_555
C33 C31 1_555 1_555
H15 C31 1_555 1_555
N9 C33 1_555 1_555
H17 C33 1_555 1_555
C29 H41 1_555 1_555

#END
