
###############################################################################
#
# This file contains modified crystal structure data generated from the
# MOF subset of the Cambridge Structural Database (CSD) v543 
# hosted by the Cambridge Crystallographic Data Centre (CCDC).
#
# This work is licensed under the Creative Commons
# Attribution-NonCommercial-ShareAlike 4.0 International License.
# To view a copy of this license, visit
# http://creativecommons.org/licenses/by-nc-sa/4.0/
# or send a letter to
# Creative Commons, PO Box 1866, Mountain View, CA 94042, USA.
#
# CIF created using the CSD Python API on 29 September 2022
# The structure has been converted into the P1 space group
# The structure has a 3D framework
# The original CSD entry ZIQDEL is in the monoclinic crystal system
# The original CSD entry ZIQDEL is in a Sohncke space group
# The framework has been calculated to contain at least 10.0% void space
# The void calculation uses a probe of radius 1.32A, grid spacing 0.4
#
###############################################################################

data_ZIQDEL
_chemical_formula_moiety         '(C136 H92 Co5 N24 O31)n'
_symmetry_cell_setting           triclinic
_symmetry_space_group_name_H-M   'P 1'
_symmetry_Int_Tables_number      1
_space_group_name_Hall           'P 1'
loop_
_symmetry_equiv_pos_site_id
_symmetry_equiv_pos_as_xyz
1 x,y,z
_cell_length_a                   8.0501(10)
_cell_length_b                   38.764(5)
_cell_length_c                   11.9123(15)
_cell_angle_alpha                90
_cell_angle_beta                 103.159(3)
_cell_angle_gamma                90
_cell_volume                     3619.67
loop_
_atom_site_label
_atom_site_type_symbol
_atom_site_fract_x
_atom_site_fract_y
_atom_site_fract_z
N14 N 0.0549(6) 0.27093(10) 0.2419(3)
Co4 Co 0.58201(10) 0.50778(2) 0.53266(7)
O8 O 0.7221(7) 0.49843(16) 0.2977(5)
O9 O 0.4946(7) 0.51653(14) 0.3593(5)
O10 O 0.4963(8) 0.45804(14) 0.5117(5)
O11 O 0.7127(8) 0.43891(15) 0.4411(5)
O12 O 0.1038(7) 0.28080(15) 0.9994(4)
C30 C 0.5807(10) 0.4349(2) 0.4775(6)
C31 C 0.5162(11) 0.3976(2) 0.4791(7)
C32 C 0.3705(11) 0.3910(2) 0.5151(7)
H21 H 0.3072 0.4098 0.5351
C33 C 0.3133(12) 0.3588(2) 0.5233(9)
H22 H 0.2104 0.3554 0.5482
C34 C 0.3993(10) 0.3311(2) 0.4969(7)
C35 C 0.5502(13) 0.3375(2) 0.4622(9)
H23 H 0.6164 0.3186 0.4462
C36 C 0.6050(11) 0.3705(2) 0.4507(8)
H24 H 0.7049 0.3744 0.4228
C37 C 0.1087(4) 0.23838(9) 0.2918(3)
H25 H 0.0716 0.2165 0.2598
C38 C 0.1407(7) 0.29696(9) 0.3172(4)
H26 H 0.1287 0.3211 0.3051
N8 N 0.2474(7) 0.28049(12) 0.4136(4)
N9 N 0.2277(5) 0.24428(11) 0.3979(3)
C39 C 0.3527(11) 0.29327(19) 0.5177(6)
H27 H 0.4596 0.2792 0.5376
C40 C 0.2625(11) 0.29069(18) 0.6132(7)
C41 C 0.0844(11) 0.2900(2) 0.5953(7)
H28 H 0.0163 0.2905 0.5189
C42 C 0.0056(12) 0.2885(2) 0.6880(7)
C43 C 0.1022(11) 0.28869(19) 0.8021(7)
C44 C 0.2832(11) 0.2879(2) 0.8193(7)
H30 H 0.3517 0.2875 0.8956
C45 C 0.3614(12) 0.2876(3) 0.7271(7)
H31 H 0.4819 0.2854 0.7404
C46 C 0.0168(11) 0.28665(18) 0.9005(7)
C47 C 0.5798(10) 0.51284(19) 0.2824(6)
C48 C 0.5011(11) 0.5268(2) 0.1681(6)
C49 C 0.3428(12) 0.5427(2) 0.1471(8)
H32 H 0.2846 0.5443 0.2079
C50 C 0.2691(14) 0.5561(3) 0.0437(9)
H33 H 0.1561 0.5650 0.0276
C53 C 0.5854(12) 0.5227(2) 0.0766(7)
H35 H 0.6916 0.5110 0.0882
Co7 Co 0.87393(11) 0.48117(2) 0.44949(7)
O18 O 0.7336(8) 0.55018(16) 0.5357(6)
O25 O 0.7394(8) 0.49366(16) 0.6849(5)
N15 N 0.4081(8) 0.52966(16) 0.6029(5)
C51 C 0.3720(14) 0.5563(3) 0.9580(9)
C52 C 0.5085(13) 0.5363(3) 0.9695(9)
H34 H 0.5540 0.5314 0.9044
C54 C 0.3226(15) 0.5782(3) 0.8419(10)
H36 H 0.4033 0.5981 0.8460
C55 C 0.2994(6) 0.50780(14) 0.6497(4)
H37 H 0.2694 0.4847 0.6267
C56 C 0.4193(9) 0.56184(15) 0.6611(7)
H38 H 0.4836 0.5813 0.6471
N11 N 0.3176(10) 0.55987(16) 0.7439(6)
N12 N 0.2435(9) 0.52647(17) 0.7368(5)
C57 C 0.1570(6) 0.62732(13) 0.8551(4)
H39 H 0.2682 0.6371 0.8697
C58 C 0.0172(7) 0.64804(13) 0.8583(5)
H40 H 0.0328 0.6719 0.8751
C62 C 0.1342(7) 0.59235(13) 0.8306(6)
O1 O 0.9587(8) 0.52952(15) 0.4728(5)
H3 H 0.9812 0.7086 0.0590
H4 H 0.9038 0.7000 0.2351
H7 H 0.9679 0.7099 0.4391
C12 C 0.8832(12) 0.6514(2) 0.5077(8)
H10 H 0.8169 0.6698 0.5268
C13 C 0.8393(14) 0.6180(2) 0.5228(8)
H11 H 0.7425 0.6132 0.5532
C14 C 0.9347(12) 0.5912(2) 0.4941(6)
C17 C 0.8750(12) 0.5542(2) 0.5036(7)
H15 H 0.9191 0.4094 0.3611
H46 H 0.9583 0.4683 0.0877
O24 O 0.9520(8) 0.47101(16) 0.6187(5)
C22 C 0.8796(9) 0.47753(19) 0.6991(6)
C66 C 0.9731(10) 0.46777(19) 0.8175(6)
C67 C 0.9082(11) 0.4749(2) 0.9119(7)
H45 H 0.8015 0.4863 0.9039
Co3 Co 0.90436(12) 0.27855(2) 0.08030(8)
O19 O 0.8075(8) 0.22931(14) 0.0643(4)
O22 O 0.8775(7) 0.33585(14) 0.1192(6)
O23 O 0.6703(7) 0.29810(13) 0.0959(5)
O4 O 0.4342(8) 0.70057(16) 0.0114(5)
O13 O 0.8560(7) 0.29016(15) 0.8815(5)
N1 N 0.0851(10) 0.41083(17) 0.2603(6)
N2 N 0.1759(8) 0.44048(13) 0.2468(5)
N3 N 0.0409(8) 0.45558(18) 0.3753(5)
N4 N 0.2002(9) 0.70945(16) 0.5508(5)
N5 N 0.2333(10) 0.74300(16) 0.5610(6)
N6 N 0.3728(8) 0.71410(16) 0.7172(5)
C1 C 0.2966(11) 0.7131(2) 0.0193(7)
C2 C 0.2416(11) 0.7075(2) 0.1315(6)
C3 C 0.0651(11) 0.7065(2) 0.1290(7)
C4 C 0.0209(12) 0.7023(2) 0.2340(7)
C5 C 0.1400(12) 0.7013(2) 0.3358(7)
C6 C 0.3127(12) 0.7028(2) 0.3384(7)
H5 H 0.3939 0.7021 0.4100
C7 C 0.3687(13) 0.7056(2) 0.2328(7)
H6 H 0.4864 0.7060 0.2318
C8 C 0.0744(11) 0.6959(2) 0.4473(6)
C9 C 0.2780(11) 0.69237(19) 0.6442(6)
H8 H 0.2674 0.6684 0.6568
C10 C 0.3392(12) 0.7452(2) 0.6633(7)
H9 H 0.3871 0.7663 0.6961
C11 C 0.0265(12) 0.6581(2) 0.4639(7)
C15 C 0.0717(13) 0.5965(2) 0.4522(9)
H12 H 0.1359 0.5777 0.4331
C16 C 0.1213(12) 0.6325(2) 0.4360(8)
H13 H 0.2187 0.6374 0.4064
C18 C 0.1541(10) 0.4656(2) 0.3168(6)
H14 H 0.2102 0.4873 0.3240
C19 C 0.0021(12) 0.4229(2) 0.3357(8)
C20 C 0.2773(10) 0.44191(18) 0.1574(7)
H16 H 0.3523 0.4626 0.1780
C21 C 0.1611(9) 0.45066(19) 0.0393(6)
C23 C 0.4014(10) 0.41173(17) 0.1576(6)
C24 C 0.3218(11) 0.37922(19) 0.1378(8)
H17 H 0.2037 0.3762 0.1345
C25 C 0.4312(11) 0.3504(2) 0.1226(8)
H18 H 0.3852 0.3278 0.1092
C26 C 0.6017(10) 0.35617(19) 0.1277(7)
C27 C 0.6655(12) 0.3906(2) 0.1420(8)
H19 H 0.7806 0.3952 0.1399
C28 C 0.5629(11) 0.4163(2) 0.1584(7)
H20 H 0.6092 0.4388 0.1713
C29 C 0.7233(10) 0.3281(2) 0.1162(7)
H29 H 0.8847 0.2874 0.6738
C68 C 0.0060(12) 0.4648(2) 0.0226(8)
Co5 Co 0.52495(12) 0.70866(2) 0.87661(8)
O3 O 0.1925(8) 0.72931(14) 0.9357(4)
O5 O 0.5934(7) 0.75792(14) 0.8926(5)
H1 H 0.6103 0.7668 0.8268
H2 H 0.6962 0.7606 0.9397
O6 O 0.7513(8) 0.68839(16) 0.8787(5)
O7 O 0.5616(9) 0.6483(2) 0.8221(8)
C59 C 0.8546(6) 0.63379(17) 0.8370(6)
C60 C 0.8318(7) 0.59882(18) 0.8124(6)
H41 H 0.7206 0.5891 0.7978
C61 C 0.9715(8) 0.57810(14) 0.8093(7)
H42 H 0.9559 0.5542 0.7925
C63 C 0.7146(10) 0.6565(2) 0.8495(7)
C64 C 0.2194(12) 0.4430(2) 0.9414(7)
H43 H 0.3271 0.4320 0.9494
C65 C 0.1234(11) 0.4509(2) 0.8313(8)
H44 H 0.1640 0.4443 0.7655
Co9 Co 0.09564(12) 0.77855(2) 0.91970(8)
Co1 Co 0.47505(12) 0.20866(2) 0.12339(8)
O5_2 O 0.4066(7) 0.25792(14) 0.1074(5)
H1_2 H 0.3897 0.2668 0.1732
H2_2 H 0.3038 0.2606 0.0603
O6_2 O 0.2487(8) 0.18839(16) 0.1213(5)
O7_2 O 0.4384(9) 0.1483(2) 0.1779(8)
C59_2 C 0.1454(6) 0.13379(17) 0.1630(6)
C60_2 C 0.1682(7) 0.09882(18) 0.1876(6)
H41_2 H 0.2794 0.0891 0.2022
C61_2 C 0.0285(8) 0.07810(14) 0.1907(7)
H42_2 H 0.0441 0.0542 0.2075
C63_2 C 0.2854(10) 0.1565(2) 0.1505(7)
N13 N 0.6272(8) 0.21410(16) 0.2828(5)
O4_2 O 0.5658(8) 0.20057(16) 0.9886(5)
N4_2 N 0.7998(9) 0.20945(16) 0.4492(5)
N5_2 N 0.7667(10) 0.24300(16) 0.4390(6)
C1_2 C 0.7034(11) 0.2131(2) 0.9807(7)
C2_2 C 0.7584(11) 0.2075(2) 0.8685(6)
C3_2 C 0.9349(11) 0.2065(2) 0.8710(7)
C4_2 C 0.9791(12) 0.2023(2) 0.7660(7)
C5_2 C 0.8600(12) 0.2013(2) 0.6642(7)
C6_2 C 0.6873(12) 0.2028(2) 0.6616(7)
H5_2 H 0.6061 0.2021 0.5900
C7_2 C 0.6313(13) 0.2056(2) 0.7672(7)
H6_2 H 0.5136 0.2060 0.7682
C8_2 C 0.9256(11) 0.1959(2) 0.5527(6)
C9_2 C 0.7220(11) 0.19237(19) 0.3558(6)
H8_2 H 0.7326 0.1684 0.3432
C10_2 C 0.6608(12) 0.2452(2) 0.3367(7)
H9_2 H 0.6129 0.2663 0.3039
C11_2 C 0.9735(12) 0.1581(2) 0.5361(7)
C15_2 C 0.9283(13) 0.0965(2) 0.5478(9)
H12_2 H 0.8641 0.0777 0.5669
C16_2 C 0.8787(12) 0.1325(2) 0.5640(8)
H13_2 H 0.7813 0.1374 0.5936
O13_2 O 0.1440(7) 0.79016(15) 0.1185(5)
O14 O 0.1225(7) 0.83585(14) 0.8808(6)
O15 O 0.3297(7) 0.79810(13) 0.9041(5)
N1_2 N 0.9149(10) 0.91083(17) 0.7397(6)
N2_2 N 0.8241(8) 0.94048(13) 0.7532(5)
N3_2 N 0.9591(8) 0.95558(18) 0.6247(5)
C18_2 C 0.8459(10) 0.9656(2) 0.6832(6)
H14_2 H 0.7898 0.9873 0.6760
C19_2 C 0.9979(12) 0.9229(2) 0.6643(8)
C20_2 C 0.7227(10) 0.94191(18) 0.8426(7)
H16_2 H 0.6477 0.9626 0.8220
C21_2 C 0.8389(9) 0.95066(19) 0.9607(6)
C23_2 C 0.5986(10) 0.91173(17) 0.8424(6)
C24_2 C 0.6782(11) 0.87922(19) 0.8622(8)
H17_2 H 0.7963 0.8762 0.8655
C25_2 C 0.5688(11) 0.8504(2) 0.8774(8)
H18_2 H 0.6148 0.8278 0.8908
C26_2 C 0.3983(10) 0.85617(19) 0.8723(7)
C27_2 C 0.3345(12) 0.8906(2) 0.8580(8)
H19_2 H 0.2194 0.8952 0.8601
C28_2 C 0.4371(11) 0.9163(2) 0.8416(7)
H20_2 H 0.3908 0.9388 0.8287
C29_2 C 0.2767(10) 0.8281(2) 0.8838(7)
H29_2 H 0.1153 0.7874 0.3262
C68_2 C 0.9940(12) 0.9648(2) 0.9774(8)
Co10 Co 0.41799(10) 0.00778(2) 0.46734(7)
O1_2 O 0.0413(8) 0.02952(15) 0.5272(5)
O2 O 0.2664(8) 0.05018(16) 0.4643(6)
H3_2 H 0.0188 0.2086 0.9410
H4_2 H 0.0962 0.2000 0.7649
H7_2 H 0.0321 0.2099 0.5609
C12_2 C 0.1168(12) 0.1514(2) 0.4923(8)
H10_2 H 0.1831 0.1698 0.4732
C13_2 C 0.1607(14) 0.1180(2) 0.4772(8)
H11_2 H 0.2575 0.1132 0.4468
C14_2 C 0.0653(12) 0.0912(2) 0.5059(6)
C17_2 C 0.1250(12) 0.0542(2) 0.4964(7)
C51_2 C 0.6280(14) 0.0563(3) 0.0420(9)
C52_2 C 0.4915(13) 0.0363(3) 0.0305(9)
H34_2 H 0.4460 0.0314 0.0956
C54_2 C 0.6774(15) 0.0782(3) 0.1581(10)
H36_2 H 0.5967 0.0981 0.1540
C55_2 C 0.7006(6) 0.00780(14) 0.3503(4)
N10 N 0.5919(8) 0.02966(16) 0.3971(5)
C56_2 C 0.5807(9) 0.06184(15) 0.3389(7)
H38_2 H 0.5164 0.0813 0.3529
N11_2 N 0.6824(10) 0.05987(16) 0.2561(6)
N12_2 N 0.7565(9) 0.02647(17) 0.2632(5)
C57_2 C 0.8430(6) 0.12732(13) 0.1449(4)
H39_2 H 0.7318 0.1371 0.1303
C58_2 C 0.9828(7) 0.14804(13) 0.1417(5)
H40_2 H 0.9672 0.1719 0.1249
C62_2 C 0.8658(7) 0.09235(13) 0.1694(6)
O9_2 O 0.5054(7) 0.01653(14) 0.6407(5)
C47_2 C 0.4202(10) 0.01284(19) 0.7176(6)
C48_2 C 0.4989(11) 0.0268(2) 0.8319(6)
C49_2 C 0.6572(12) 0.0427(2) 0.8529(8)
H32_2 H 0.7154 0.0443 0.7921
C50_2 C 0.7309(14) 0.0561(3) 0.9563(9)
H33_2 H 0.8439 0.0650 0.9724
C53_2 C 0.4146(12) 0.0227(2) 0.9234(7)
H35_2 H 0.3084 0.0110 0.9118
O16 O 0.0480(8) 0.97101(16) 0.3813(5)
O17 O 0.2606(8) 0.99366(16) 0.3151(5)
C22_2 C 0.1204(9) 0.97753(19) 0.3009(6)
C66_2 C 0.0269(10) 0.96777(19) 0.1825(6)
C67_2 C 0.0918(11) 0.9749(2) 0.0881(7)
H45_2 H 0.1985 0.9863 0.0961
Co6 Co 0.12607(11) 0.98117(2) 0.55051(7)
H15_2 H 0.0809 0.9094 0.6389
H46_2 H 0.0417 0.9683 0.9123
O20 O 0.2779(7) 0.99843(16) 0.7023(5)
O21 O 0.2873(8) 0.93891(15) 0.5589(5)
O10_2 O 0.5037(8) 0.95804(14) 0.4883(5)
O12_2 O 0.8962(7) 0.78080(15) 0.0006(4)
C30_2 C 0.4193(10) 0.9349(2) 0.5225(6)
C31_2 C 0.4838(11) 0.8976(2) 0.5209(7)
C32_2 C 0.6295(11) 0.8910(2) 0.4849(7)
H21_2 H 0.6928 0.9098 0.4649
C33_2 C 0.6867(12) 0.8588(2) 0.4767(9)
H22_2 H 0.7896 0.8554 0.4518
C34_2 C 0.6007(10) 0.8311(2) 0.5031(7)
C35_2 C 0.4498(13) 0.8375(2) 0.5378(9)
H23_2 H 0.3836 0.8186 0.5538
C36_2 C 0.3950(11) 0.8705(2) 0.5493(8)
H24_2 H 0.2951 0.8744 0.5772
C37_2 C 0.8913(4) 0.73838(9) 0.7082(3)
H25_2 H 0.9284 0.7165 0.7402
N7 N 0.9451(6) 0.77093(10) 0.7581(3)
C38_2 C 0.8593(7) 0.79696(9) 0.6828(4)
H26_2 H 0.8713 0.8211 0.6949
N8_2 N 0.7526(7) 0.78049(12) 0.5864(4)
N9_2 N 0.7723(5) 0.74428(11) 0.6021(3)
C39_2 C 0.6473(11) 0.79327(19) 0.4823(6)
H27_2 H 0.5404 0.7792 0.4624
C40_2 C 0.7375(11) 0.79069(18) 0.3868(7)
C41_2 C 0.9156(11) 0.7900(2) 0.4047(7)
H28_2 H 0.9837 0.7905 0.4811
C42_2 C 0.9944(12) 0.7885(2) 0.3120(7)
C43_2 C 0.8978(11) 0.78869(19) 0.1979(7)
C44_2 C 0.7168(11) 0.7879(2) 0.1807(7)
H30_2 H 0.6483 0.7875 0.1044
C45_2 C 0.6386(12) 0.7876(3) 0.2729(7)
H31_2 H 0.5181 0.7854 0.2596
C46_2 C 0.9832(11) 0.78665(18) 0.0995(7)
C64_2 C 0.7806(12) 0.9430(2) 0.0586(7)
H43_2 H 0.6729 0.9320 0.0506
C65_2 C 0.8766(11) 0.9509(2) 0.1687(8)
H44_2 H 0.8360 0.9443 0.2345
H37_2 H 0.7306 0.9847 0.3733
loop_
_geom_bond_atom_site_label_1
_geom_bond_atom_site_label_2
_geom_bond_site_symmetry_1
_geom_bond_site_symmetry_2
Co4 O9 1_555 1_555
O8 C47 1_555 1_555
O9 C47 1_555 1_555
O10 Co4 1_555 1_555
O11 C30 1_555 1_555
O12 C46 1_555 1_555
C30 O10 1_555 1_555
C31 C30 1_555 1_555
C32 C31 1_555 1_555
H21 C32 1_555 1_555
C33 C32 1_555 1_555
H22 C33 1_555 1_555
C34 C33 1_555 1_555
C35 C34 1_555 1_555
H23 C35 1_555 1_555
C36 C31 1_555 1_555
H24 C36 1_555 1_555
C37 H25 1_555 1_555
N14 C37 1_555 1_555
C38 N14 1_555 1_555
H26 C38 1_555 1_555
N8 C38 1_555 1_555
N9 C37 1_555 1_555
C39 C34 1_555 1_555
H27 C39 1_555 1_555
C40 C39 1_555 1_555
C41 C40 1_555 1_555
H28 C41 1_555 1_555
C42 C41 1_555 1_555
C43 C42 1_555 1_555
C44 C43 1_555 1_555
H30 C44 1_555 1_555
C45 C40 1_555 1_555
H31 C45 1_555 1_555
C47 C48 1_555 1_555
C48 C49 1_555 1_555
C49 H32 1_555 1_555
C50 C49 1_555 1_555
H33 C50 1_555 1_555
C53 C48 1_555 1_555
H35 C53 1_555 1_555
Co7 O8 1_555 1_555
O18 Co4 1_555 1_555
O25 Co4 1_555 1_555
N15 Co4 1_555 1_555
O11 Co7 1_555 1_555
C35 C36 1_555 1_555
N8 N9 1_555 1_555
N8 C39 1_555 1_555
C43 C46 1_555 1_555
C44 C45 1_555 1_555
C52 C51 1_555 1_555
H34 C52 1_555 1_555
C54 C51 1_555 1_555
H36 C54 1_555 1_555
C55 H37 1_555 1_555
N15 C55 1_555 1_555
C56 N15 1_555 1_555
H38 C56 1_555 1_555
N11 C54 1_555 1_555
N12 C55 1_555 1_555
C57 H39 1_555 1_555
C58 C57 1_555 1_555
H40 C58 1_555 1_555
C62 C54 1_555 1_555
C56 N11 1_555 1_555
N11 N12 1_555 1_555
C57 C62 1_555 1_555
Co7 O1 1_555 1_555
O1 C17 1_555 1_555
O18 C17 1_555 1_555
H10 C12 1_555 1_555
C13 C12 1_555 1_555
H11 C13 1_555 1_555
C14 C13 1_555 1_555
C17 C14 1_555 1_555
O24 Co7 1_555 1_555
O24 C22 1_555 1_555
O25 C22 1_555 1_555
C22 C66 1_555 1_555
C67 C66 1_555 1_555
H45 C67 1_555 1_555
O19 Co3 1_555 1_555
O22 Co3 1_555 1_555
O23 Co3 1_555 1_555
O4 C1 1_555 1_555
O22 C29 1_555 1_555
O23 C29 1_555 1_555
N1 N2 1_555 1_555
N2 C18 1_555 1_555
N4 N5 1_555 1_555
N5 C10 1_555 1_555
N6 C9 1_555 1_555
C1 C2 1_555 1_555
C2 C3 1_555 1_555
C4 C3 1_555 1_555
C5 C4 1_555 1_555
C6 C5 1_555 1_555
H5 C6 1_555 1_555
C7 C2 1_555 1_555
H6 C7 1_555 1_555
C8 N4 1_555 1_555
C9 N4 1_555 1_555
H8 C9 1_555 1_555
C10 N6 1_555 1_555
H9 C10 1_555 1_555
C11 C8 1_555 1_555
H12 C15 1_555 1_555
C16 C11 1_555 1_555
H13 C16 1_555 1_555
C18 N3 1_555 1_555
H14 C18 1_555 1_555
C19 N1 1_555 1_555
C20 N2 1_555 1_555
H16 C20 1_555 1_555
C21 C20 1_555 1_555
C23 C20 1_555 1_555
C24 C23 1_555 1_555
H17 C24 1_555 1_555
C25 C24 1_555 1_555
H18 C25 1_555 1_555
C26 C25 1_555 1_555
C27 C26 1_555 1_555
H19 C27 1_555 1_555
C28 C23 1_555 1_555
H20 C28 1_555 1_555
C29 C26 1_555 1_555
C68 C21 1_555 1_555
Co5 N6 1_555 1_555
N3 C19 1_555 1_555
C5 C8 1_555 1_555
C6 C7 1_555 1_555
C15 C16 1_555 1_555
C27 C28 1_555 1_555
O5 Co5 1_555 1_555
H1 O5 1_555 1_555
H2 O5 1_555 1_555
O6 Co5 1_555 1_555
O7 C63 1_555 1_555
C60 C59 1_555 1_555
H41 C60 1_555 1_555
C61 C60 1_555 1_555
H42 C61 1_555 1_555
C63 O6 1_555 1_555
H43 C64 1_555 1_555
C65 C64 1_555 1_555
H44 C65 1_555 1_555
Co9 O3 1_555 1_555
C59 C63 1_555 1_555
O5_2 Co1 1_555 1_555
H1_2 O5_2 1_555 1_555
H2_2 O5_2 1_555 1_555
O6_2 Co1 1_555 1_555
O7_2 C63_2 1_555 1_555
C60_2 C59_2 1_555 1_555
H41_2 C60_2 1_555 1_555
C61_2 C60_2 1_555 1_555
H42_2 C61_2 1_555 1_555
C63_2 O6_2 1_555 1_555
N13 Co1 1_555 1_555
C59_2 C63_2 1_555 1_555
O4_2 C1_2 1_555 1_555
N4_2 N5_2 1_555 1_555
N5_2 C10_2 1_555 1_555
N13 C9_2 1_555 1_555
C1_2 C2_2 1_555 1_555
C2_2 C3_2 1_555 1_555
C4_2 C3_2 1_555 1_555
C5_2 C4_2 1_555 1_555
C6_2 C5_2 1_555 1_555
H5_2 C6_2 1_555 1_555
C7_2 C2_2 1_555 1_555
H6_2 C7_2 1_555 1_555
C8_2 N4_2 1_555 1_555
C9_2 N4_2 1_555 1_555
H8_2 C9_2 1_555 1_555
C10_2 N13 1_555 1_555
H9_2 C10_2 1_555 1_555
C11_2 C8_2 1_555 1_555
H12_2 C15_2 1_555 1_555
C16_2 C11_2 1_555 1_555
H13_2 C16_2 1_555 1_555
C5_2 C8_2 1_555 1_555
C6_2 C7_2 1_555 1_555
C15_2 C16_2 1_555 1_555
O14 C29_2 1_555 1_555
O15 C29_2 1_555 1_555
N1_2 N2_2 1_555 1_555
N2_2 C18_2 1_555 1_555
C18_2 N3_2 1_555 1_555
H14_2 C18_2 1_555 1_555
C19_2 N1_2 1_555 1_555
C20_2 N2_2 1_555 1_555
H16_2 C20_2 1_555 1_555
C21_2 C20_2 1_555 1_555
C23_2 C20_2 1_555 1_555
C24_2 C23_2 1_555 1_555
H17_2 C24_2 1_555 1_555
C25_2 C24_2 1_555 1_555
H18_2 C25_2 1_555 1_555
C26_2 C25_2 1_555 1_555
C27_2 C26_2 1_555 1_555
H19_2 C27_2 1_555 1_555
C28_2 C23_2 1_555 1_555
H20_2 C28_2 1_555 1_555
C29_2 C26_2 1_555 1_555
C68_2 C21_2 1_555 1_555
Co9 O14 1_555 1_555
O15 Co9 1_555 1_555
N3_2 C19_2 1_555 1_555
C27_2 C28_2 1_555 1_555
O1_2 C17_2 1_555 1_555
O2 C17_2 1_555 1_555
H10_2 C12_2 1_555 1_555
C13_2 C12_2 1_555 1_555
H11_2 C13_2 1_555 1_555
C14_2 C13_2 1_555 1_555
C17_2 C14_2 1_555 1_555
Co10 O2 1_555 1_555
C52_2 C51_2 1_555 1_555
H34_2 C52_2 1_555 1_555
C54_2 C51_2 1_555 1_555
H36_2 C54_2 1_555 1_555
N10 C55_2 1_555 1_555
C56_2 N10 1_555 1_555
H38_2 C56_2 1_555 1_555
N11_2 C54_2 1_555 1_555
N12_2 C55_2 1_555 1_555
C57_2 H39_2 1_555 1_555
C58_2 C57_2 1_555 1_555
H40_2 C58_2 1_555 1_555
C62_2 C54_2 1_555 1_555
Co10 N10 1_555 1_555
C56_2 N11_2 1_555 1_555
N11_2 N12_2 1_555 1_555
C57_2 C62_2 1_555 1_555
Co10 O9_2 1_555 1_555
O9_2 C47_2 1_555 1_555
C47_2 C48_2 1_555 1_555
C48_2 C49_2 1_555 1_555
C49_2 H32_2 1_555 1_555
C50_2 C49_2 1_555 1_555
H33_2 C50_2 1_555 1_555
C53_2 C48_2 1_555 1_555
H35_2 C53_2 1_555 1_555
O16 C22_2 1_555 1_555
O17 C22_2 1_555 1_555
C22_2 C66_2 1_555 1_555
C67_2 C66_2 1_555 1_555
H45_2 C67_2 1_555 1_555
Co6 O16 1_555 1_555
O20 Co6 1_555 1_555
O21 Co6 1_555 1_555
O21 C30_2 1_555 1_555
O12_2 C46_2 1_555 1_555
C30_2 O10_2 1_555 1_555
C31_2 C30_2 1_555 1_555
C32_2 C31_2 1_555 1_555
H21_2 C32_2 1_555 1_555
C33_2 C32_2 1_555 1_555
H22_2 C33_2 1_555 1_555
C34_2 C33_2 1_555 1_555
C35_2 C34_2 1_555 1_555
H23_2 C35_2 1_555 1_555
C36_2 C31_2 1_555 1_555
H24_2 C36_2 1_555 1_555
C37_2 H25_2 1_555 1_555
N7 C37_2 1_555 1_555
C38_2 N7 1_555 1_555
H26_2 C38_2 1_555 1_555
N8_2 C38_2 1_555 1_555
N9_2 C37_2 1_555 1_555
C39_2 C34_2 1_555 1_555
H27_2 C39_2 1_555 1_555
C40_2 C39_2 1_555 1_555
C41_2 C40_2 1_555 1_555
H28_2 C41_2 1_555 1_555
C42_2 C41_2 1_555 1_555
C43_2 C42_2 1_555 1_555
C44_2 C43_2 1_555 1_555
H30_2 C44_2 1_555 1_555
C45_2 C40_2 1_555 1_555
H31_2 C45_2 1_555 1_555
C35_2 C36_2 1_555 1_555
N8_2 N9_2 1_555 1_555
N8_2 C39_2 1_555 1_555
C43_2 C46_2 1_555 1_555
C44_2 C45_2 1_555 1_555
H43_2 C64_2 1_555 1_555
C65_2 C64_2 1_555 1_555
H44_2 C65_2 1_555 1_555

#END
