
###############################################################################
#
# This file contains modified crystal structure data generated from the
# MOF subset of the Cambridge Structural Database (CSD) v543 
# hosted by the Cambridge Crystallographic Data Centre (CCDC).
#
# This work is licensed under the Creative Commons
# Attribution-NonCommercial-ShareAlike 4.0 International License.
# To view a copy of this license, visit
# http://creativecommons.org/licenses/by-nc-sa/4.0/
# or send a letter to
# Creative Commons, PO Box 1866, Mountain View, CA 94042, USA.
#
# CIF created using the CSD Python API on 29 September 2022
# The structure has been converted into the P1 space group
# The structure has a 3D framework
# The original CSD entry ZIQGOX is in the hexagonal crystal system
# The framework has been calculated to contain at least 10.0% void space
# The void calculation uses a probe of radius 1.32A, grid spacing 0.4
# H atom positions have been added when not included in the experimental data
# Generated hydrogen atom positions removed from atoms on special positions
#
###############################################################################

data_ZIQGOX
_chemical_formula_moiety         '(C84 H66 Co23 Gd2 N12 O78)n'
_symmetry_cell_setting           triclinic
_symmetry_space_group_name_H-M   'P 1'
_symmetry_Int_Tables_number      1
_space_group_name_Hall           'P 1'
loop_
_symmetry_equiv_pos_site_id
_symmetry_equiv_pos_as_xyz
1 x,y,z
_cell_length_a                   15.3945(12)
_cell_length_b                   15.3945(12)
_cell_length_c                   14.6706(6)
_cell_angle_alpha                90
_cell_angle_beta                 90
_cell_angle_gamma                120
_cell_volume                     3010.99
loop_
_atom_site_label
_atom_site_type_symbol
_atom_site_fract_x
_atom_site_fract_y
_atom_site_fract_z
Gd1 Gd 0.6667 0.3333 0.2500
Co1 Co 0.5000 0.5000 0.0000
C1 C 0.4202(18) 0.2691(16) 0.1896(14)
C2 C 0.3181(19) 0.2159(18) 0.1904(17)
H1 H 0.2906 0.2314 0.1468
C3 C 0.493(3) 0.354(2) 0.1408(15)
N1 N 0.4790(17) 0.2395(9) 0.2500
C4 C 0.286(3) 0.1431(16) 0.2500
O1 O 0.3464(14) 0.4805(14) 0.0000
H2 H 0.3123 0.4133 0.0000
O2 O 0.5884(12) 0.3882(11) 0.1435(9)
O3 O 0.4499(10) 0.3915(12) 0.0966(8)
Co2 Co -0.0000 0.0000 0.2500
O4 O 0.1690(19) 0.0845(10) 0.2500
C5 C 0.4202(18) 0.1511(24) 0.3104(14)
C6 C 0.3181(19) 0.1022(26) 0.3096(17)
H3 H 0.2906 0.0592 0.3532
C7 C 0.493(3) 0.139(4) 0.3592(15)
O5 O 0.5884(12) 0.2002(16) 0.3565(9)
O6 O 0.4499(10) 0.0584(16) 0.4034(8)
C36 C 0.1511(24) 0.4202(18) 0.1896(14)
C37 C 0.1022(26) 0.3181(19) 0.1904(17)
H14 H 0.0592 0.2906 0.1468
C38 C 0.139(4) 0.493(3) 0.1408(15)
N6 N 0.2395(19) 0.4790(17) 0.2500
C39 C 0.1429(34) 0.286(3) 0.2500
O29 O 0.2002(16) 0.5884(12) 0.1435(9)
O30 O 0.0584(16) 0.4499(10) 0.0966(8)
O31 O 0.0845(21) 0.1690(19) 0.2500
C40 C 0.2691(16) 0.4202(18) 0.3104(14)
C41 C 0.2159(18) 0.3181(19) 0.3096(17)
H15 H 0.2314 0.2906 0.3532
C42 C 0.354(2) 0.493(3) 0.3592(15)
O32 O 0.3882(11) 0.5884(12) 0.3565(9)
O33 O 0.3915(12) 0.4499(10) 0.4034(8)
O34 O 0.6536(14) 0.5195(14) 0.0000
H16 H 0.6877 0.5867 0.0000
Gd6 Gd 0.3333 0.6667 0.2500
Co6 Co 0.5000 0.0000 0.0000
Co7 Co -0.0000 0.5000 0.0000
Co9 Co 0.5000 0.5000 0.5000
Co11 Co -0.0000 0.5000 0.5000
Co13 Co 0.5000 0.0000 0.5000
N8 N 0.7605(9) 0.2395(19) 0.2500
N10 N 0.7605(19) 0.5210(17) 0.2500
O38 O 0.6118(11) 0.2002(16) 0.1435(9)
O40 O 0.7998(16) 0.4116(12) 0.1435(9)
O42 O 0.6118(11) 0.4116(12) 0.3565(9)
O43 O 0.7998(16) 0.3882(11) 0.3565(9)
O45 O 0.5501(10) 0.6085(12) 0.0966(8)
Co1_2 Co 0.5000 0.5000 1.0000
O1_2 O 0.3464(14) 0.4805(14) 1.0000
H2_2 H 0.3123 0.4133 1.0000
O34_2 O 0.6536(14) 0.5195(14) 1.0000
H16_2 H 0.6877 0.5867 1.0000
Co6_2 Co 0.5000 0.0000 1.0000
Co7_2 Co -0.0000 0.5000 1.0000
O48 O 0.5501(10) 0.6085(12) 0.9034(8)
O51 O 0.4499(10) 0.3915(12) 0.9034(8)
H21 H 0.333039 0.509217 0.944734
H24 H 0.666961 0.490783 0.944734
Co2_2 Co -0.0000 1.0000 0.2500
O13 O 0.1341(20) 0.6536(14) 0.0000
H8 H 0.1010 0.6877 0.0000
C29 C 0.2691(16) 0.8489(24) 0.1896(14)
C30 C 0.2159(18) 0.8978(26) 0.1904(17)
H12 H 0.2314 0.9408 0.1468
C31 C 0.354(2) 0.861(4) 0.1408(15)
N5 N 0.2395(9) 0.7605(19) 0.2500
C32 C 0.1431(16) 0.8571(34) 0.2500
O24 O 0.3882(11) 0.7998(16) 0.1435(9)
O25 O 0.3915(12) 0.9416(16) 0.0966(8)
O26 O 0.0845(10) 0.9155(21) 0.2500
C33 C 0.1511(24) 0.7309(16) 0.3104(14)
C34 C 0.1022(26) 0.7841(18) 0.3096(17)
H13 H 0.0592 0.7686 0.3532
C35 C 0.139(4) 0.646(2) 0.3592(15)
O27 O 0.2002(16) 0.6118(11) 0.3565(9)
O28 O 0.0584(16) 0.6085(12) 0.4034(8)
Co6_3 Co 0.5000 1.0000 0.0000
Co13_2 Co 0.5000 1.0000 0.5000
O13_2 O 0.1341(20) 0.6536(14) 1.0000
H8_2 H 0.1010 0.6877 1.0000
Co6_4 Co 0.5000 1.0000 1.0000
O50 O 0.0584(16) 0.4499(10) 0.9034(8)
H19 H 0.176178 0.666961 0.944734
Co2_3 Co 1.0000 0.0000 0.2500
C8 C 0.7309(16) 0.1511(24) 0.1896(14)
C9 C 0.7841(18) 0.1022(26) 0.1904(17)
H4 H 0.7686 0.0592 0.1468
C10 C 0.646(2) 0.139(4) 0.1408(15)
C11 C 0.8569(16) 0.1429(34) 0.2500
O9 O 0.6085(12) 0.0584(16) 0.0966(8)
O10 O 0.9155(10) 0.0845(21) 0.2500
C12 C 0.8489(24) 0.2691(16) 0.3104(14)
C13 C 0.8978(26) 0.2159(18) 0.3096(17)
H6 H 0.9408 0.2314 0.3532
C14 C 0.861(4) 0.354(2) 0.3592(15)
O12 O 0.9416(16) 0.3915(12) 0.4034(8)
O35 O 0.4805(14) 0.1341(20) 0.0000
H17 H 0.4133 0.1010 0.0000
Co7_3 Co 1.0000 0.5000 0.0000
Co11_2 Co 1.0000 0.5000 0.5000
O35_2 O 0.4805(14) 0.1341(20) 1.0000
H17_2 H 0.4133 0.1010 1.0000
Co7_4 Co 1.0000 0.5000 1.0000
O52 O 0.6085(12) 0.0584(16) 0.9034(8)
H23 H 0.509217 0.176178 0.944734
Co2_4 Co 1.0000 1.0000 0.2500
O7 O 0.5195(14) 0.8659(20) 0.0000
H5 H 0.5867 0.8990 0.0000
C15 C 0.8489(24) 0.5798(18) 0.1896(14)
C16 C 0.8978(26) 0.6819(19) 0.1904(17)
H7 H 0.9408 0.7094 0.1468
C17 C 0.861(4) 0.507(3) 0.1408(15)
C18 C 0.8571(34) 0.714(3) 0.2500
O15 O 0.9416(16) 0.5501(10) 0.0966(8)
O16 O 0.9155(21) 0.8310(19) 0.2500
C19 C 0.7309(16) 0.5798(18) 0.3104(14)
C20 C 0.7841(18) 0.6819(19) 0.3096(17)
H9 H 0.7686 0.7094 0.3532
C21 C 0.646(2) 0.507(3) 0.3592(15)
O18 O 0.6085(12) 0.5501(10) 0.4034(8)
C22 C 0.5798(18) 0.7309(16) 0.1896(14)
C23 C 0.6819(19) 0.7841(18) 0.1904(17)
H10 H 0.7094 0.7686 0.1468
C24 C 0.507(3) 0.646(2) 0.1408(15)
N4 N 0.5210(17) 0.7605(9) 0.2500
C25 C 0.714(3) 0.8569(16) 0.2500
O19 O 0.4116(12) 0.6118(11) 0.1435(9)
O21 O 0.8310(19) 0.9155(10) 0.2500
C26 C 0.5798(18) 0.8489(24) 0.3104(14)
C27 C 0.6819(19) 0.8978(26) 0.3096(17)
H11 H 0.7094 0.9408 0.3532
C28 C 0.507(3) 0.861(4) 0.3592(15)
O22 O 0.4116(12) 0.7998(16) 0.3565(9)
O23 O 0.5501(10) 0.9416(16) 0.4034(8)
O36 O 0.8659(20) 0.3464(14) 0.0000
H18 H 0.8990 0.3123 0.0000
O7_2 O 0.5195(14) 0.8659(20) 1.0000
H5_2 H 0.5867 0.8990 1.0000
O36_2 O 0.8659(20) 0.3464(14) 1.0000
H18_2 H 0.8990 0.3123 1.0000
O49 O 0.3915(12) 0.9416(16) 0.9034(8)
O53 O 0.9416(16) 0.5501(10) 0.9034(8)
H20 H 0.490783 0.823822 0.944734
H22 H 0.823822 0.333039 0.944734
O1_3 O 0.4805(14) 0.3464(14) 0.5000
O34_3 O 0.5195(14) 0.6536(14) 0.5000
O48_2 O 0.6085(12) 0.5501(10) 0.5966(8)
O51_2 O 0.3915(12) 0.4499(10) 0.5966(8)
O35_3 O 0.1341(20) 0.4805(14) 0.5000
O52_2 O 0.0584(16) 0.6085(12) 0.5966(8)
O13_3 O 0.6536(14) 0.1341(20) 0.5000
O50_2 O 0.4499(10) 0.0584(16) 0.5966(8)
O7_3 O 0.8659(20) 0.5195(14) 0.5000
O36_3 O 0.3464(14) 0.8659(20) 0.5000
O49_2 O 0.9416(16) 0.3915(12) 0.5966(8)
O53_2 O 0.5501(10) 0.9416(16) 0.5966(8)
H20_2 H 0.509217 0.176178 0.0552657
H22_2 H 0.176178 0.666961 0.0552657
Co2_5 Co -0.0000 0.0000 0.7500
C15_2 C 0.1511(24) 0.4202(18) 0.8104(14)
C16_2 C 0.1022(26) 0.3181(19) 0.8096(17)
H7_2 H 0.0592 0.2906 0.8532
C17_2 C 0.139(4) 0.493(3) 0.8592(15)
N3 N 0.2395(19) 0.4790(17) 0.7500
C18_2 C 0.1429(34) 0.286(3) 0.7500
O14 O 0.2002(16) 0.5884(12) 0.8565(9)
O16_2 O 0.0845(21) 0.1690(19) 0.7500
C19_2 C 0.2691(16) 0.4202(18) 0.6896(14)
C20_2 C 0.2159(18) 0.3181(19) 0.6904(17)
H9_2 H 0.2314 0.2906 0.6468
C21_2 C 0.354(2) 0.493(3) 0.6408(15)
O17 O 0.3882(11) 0.5884(12) 0.6435(9)
C22_2 C 0.4202(18) 0.2691(16) 0.8104(14)
C23_2 C 0.3181(19) 0.2159(18) 0.8096(17)
H10_2 H 0.2906 0.2314 0.8532
C24_2 C 0.493(3) 0.354(2) 0.8592(15)
N4_2 N 0.4790(17) 0.2395(9) 0.7500
C25_2 C 0.286(3) 0.1431(16) 0.7500
O19_2 O 0.5884(12) 0.3882(11) 0.8565(9)
O21_2 O 0.1690(19) 0.0845(10) 0.7500
C26_2 C 0.4202(18) 0.1511(24) 0.6896(14)
C27_2 C 0.3181(19) 0.1022(26) 0.6904(17)
H11_2 H 0.2906 0.0592 0.6468
C28_2 C 0.493(3) 0.139(4) 0.6408(15)
O22_2 O 0.5884(12) 0.2002(16) 0.6435(9)
Gd3 Gd 0.3333 0.6667 0.7500
Gd4 Gd 0.6667 0.3333 0.7500
H23_2 H 0.490783 0.823822 0.0552657
Co2_6 Co -0.0000 1.0000 0.7500
C8_2 C 0.2691(16) 0.8489(24) 0.8104(14)
C9_2 C 0.2159(18) 0.8978(26) 0.8096(17)
H4_2 H 0.2314 0.9408 0.8532
C10_2 C 0.354(2) 0.861(4) 0.8592(15)
N2 N 0.2395(9) 0.7605(19) 0.7500
C11_2 C 0.1431(16) 0.8571(34) 0.7500
O8 O 0.3882(11) 0.7998(16) 0.8565(9)
O10_2 O 0.0845(10) 0.9155(21) 0.7500
C12_2 C 0.1511(24) 0.7309(16) 0.6896(14)
C13_2 C 0.1022(26) 0.7841(18) 0.6904(17)
H6_2 H 0.0592 0.7686 0.6468
C14_2 C 0.139(4) 0.646(2) 0.6408(15)
O11 O 0.2002(16) 0.6118(11) 0.6435(9)
N7 N 0.5210(17) 0.7605(9) 0.7500
O37 O 0.4116(12) 0.6118(11) 0.8565(9)
O44 O 0.4116(12) 0.7998(16) 0.6435(9)
H19_2 H 0.823822 0.333039 0.0552657
Co2_7 Co 1.0000 0.0000 0.7500
C29_2 C 0.7309(16) 0.1511(24) 0.8104(14)
C30_2 C 0.7841(18) 0.1022(26) 0.8096(17)
H12_2 H 0.7686 0.0592 0.8532
C31_2 C 0.646(2) 0.139(4) 0.8592(15)
N5_2 N 0.7605(9) 0.2395(19) 0.7500
C32_2 C 0.8569(16) 0.1429(34) 0.7500
O24_2 O 0.6118(11) 0.2002(16) 0.8565(9)
O26_2 O 0.9155(10) 0.0845(21) 0.7500
C33_2 C 0.8489(24) 0.2691(16) 0.6896(14)
C34_2 C 0.8978(26) 0.2159(18) 0.6904(17)
H13_2 H 0.9408 0.2314 0.6468
C35_2 C 0.861(4) 0.354(2) 0.6408(15)
O27_2 O 0.7998(16) 0.3882(11) 0.6435(9)
H21_2 H 0.666961 0.490783 0.0552657
H24_2 H 0.333039 0.509217 0.0552657
C1_2 C 0.5798(18) 0.7309(16) 0.8104(14)
C2_2 C 0.6819(19) 0.7841(18) 0.8096(17)
H1_2 H 0.7094 0.7686 0.8532
C3_2 C 0.507(3) 0.646(2) 0.8592(15)
C4_2 C 0.714(3) 0.8569(16) 0.7500
Co2_8 Co 1.0000 1.0000 0.7500
O4_2 O 0.8310(19) 0.9155(10) 0.7500
C5_2 C 0.5798(18) 0.8489(24) 0.6896(14)
C6_2 C 0.6819(19) 0.8978(26) 0.6904(17)
H3_2 H 0.7094 0.9408 0.6468
C7_2 C 0.507(3) 0.861(4) 0.6408(15)
C36_2 C 0.8489(24) 0.5798(18) 0.8104(14)
C37_2 C 0.8978(26) 0.6819(19) 0.8096(17)
H14_2 H 0.9408 0.7094 0.8532
C38_2 C 0.861(4) 0.507(3) 0.8592(15)
N6_2 N 0.7605(19) 0.5210(17) 0.7500
C39_2 C 0.8571(34) 0.714(3) 0.7500
O29_2 O 0.7998(16) 0.4116(12) 0.8565(9)
O31_2 O 0.9155(21) 0.8310(19) 0.7500
C40_2 C 0.7309(16) 0.5798(18) 0.6896(14)
C41_2 C 0.7841(18) 0.6819(19) 0.6904(17)
H15_2 H 0.7686 0.7094 0.6468
C42_2 C 0.646(2) 0.507(3) 0.6408(15)
O32_2 O 0.6118(11) 0.4116(12) 0.6435(9)
loop_
_geom_bond_atom_site_label_1
_geom_bond_atom_site_label_2
_geom_bond_site_symmetry_1
_geom_bond_site_symmetry_2
Gd1 N1 1_555 1_555
Co1 O1 1_555 1_555
C1 C2 1_555 1_555
C2 H1 1_555 1_555
C3 C1 1_555 1_555
N1 C1 1_555 1_555
C4 C2 1_555 1_555
O1 H2 1_555 1_555
O2 Gd1 1_555 1_555
O3 Co1 1_555 1_555
Co2 O4 1_555 1_555
O4 C4 1_555 1_555
C5 N1 1_555 1_555
C6 C4 1_555 1_555
H3 C6 1_555 1_555
C7 C5 1_555 1_555
O5 Gd1 1_555 1_555
O6 C7 1_555 1_555
C36 C37 1_555 1_555
C37 H14 1_555 1_555
C38 C36 1_555 1_555
N6 C36 1_555 1_555
C39 C37 1_555 1_555
O29 C38 1_555 1_555
O30 C38 1_555 1_555
O31 Co2 1_555 1_555
C40 N6 1_555 1_555
C41 C39 1_555 1_555
H15 C41 1_555 1_555
C42 C40 1_555 1_555
O32 C42 1_555 1_555
O33 C42 1_555 1_555
O34 Co1 1_555 1_555
H16 O34 1_555 1_555
Gd6 N6 1_555 1_555
Co7 O30 1_555 1_555
Co9 O33 1_555 1_555
Co13 O6 1_555 1_555
N8 Gd1 1_555 1_555
N10 Gd1 1_555 1_555
O38 Gd1 1_555 1_555
O40 Gd1 1_555 1_555
O42 Gd1 1_555 1_555
O43 Gd1 1_555 1_555
O45 Co1 1_555 1_555
C3 O2 1_555 1_555
C3 O3 1_555 1_555
C5 C6 1_555 1_555
C7 O5 1_555 1_555
C39 O31 1_555 1_555
O29 Gd6 1_555 1_555
C40 C41 1_555 1_555
O32 Gd6 1_555 1_555
Co1_2 O1_2 1_555 1_555
O1_2 H2_2 1_555 1_555
O34_2 Co1_2 1_555 1_555
H16_2 O34_2 1_555 1_555
O48 Co1_2 1_555 1_555
O51 Co1_2 1_555 1_555
O1_2 H21 1_555 1_555
O34_2 H24 1_555 1_555
Co7 O13 1_555 1_555
O13 H8 1_555 1_555
C29 C30 1_555 1_555
C30 H12 1_555 1_555
C31 C29 1_555 1_555
N5 C29 1_555 1_555
C32 C30 1_555 1_555
O24 C31 1_555 1_555
O25 C31 1_555 1_555
O26 Co2_2 1_555 1_555
C33 N5 1_555 1_555
C34 C32 1_555 1_555
H13 C34 1_555 1_555
C35 C33 1_555 1_555
O27 C35 1_555 1_555
O28 C35 1_555 1_555
Gd6 N5 1_555 1_555
Co6_3 O25 1_555 1_555
Co11 O28 1_555 1_555
C32 O26 1_555 1_555
O24 Gd6 1_555 1_555
C33 C34 1_555 1_555
O27 Gd6 1_555 1_555
Co7_2 O13_2 1_555 1_555
O13_2 H8_2 1_555 1_555
O50 Co7_2 1_555 1_555
O13_2 H19 1_555 1_555
C8 C9 1_555 1_555
C9 H4 1_555 1_555
C10 C8 1_555 1_555
N8 C8 1_555 1_555
C11 C9 1_555 1_555
O9 Co6 1_555 1_555
O10 Co2_3 1_555 1_555
C12 N8 1_555 1_555
C13 C11 1_555 1_555
H6 C13 1_555 1_555
C14 C12 1_555 1_555
O12 C14 1_555 1_555
O35 Co6 1_555 1_555
H17 O35 1_555 1_555
Co11_2 O12 1_555 1_555
C10 O38 1_555 1_555
C10 O9 1_555 1_555
C11 O10 1_555 1_555
C12 C13 1_555 1_555
C14 O43 1_555 1_555
O35_2 Co6_2 1_555 1_555
H17_2 O35_2 1_555 1_555
O52 Co6_2 1_555 1_555
O35_2 H23 1_555 1_555
Co6_3 O7 1_555 1_555
O7 H5 1_555 1_555
C15 C16 1_555 1_555
C16 H7 1_555 1_555
C17 C15 1_555 1_555
N10 C15 1_555 1_555
C18 C16 1_555 1_555
O40 C17 1_555 1_555
O15 Co7_3 1_555 1_555
O16 Co2_4 1_555 1_555
C19 N10 1_555 1_555
C20 C18 1_555 1_555
H9 C20 1_555 1_555
C21 C19 1_555 1_555
O42 C21 1_555 1_555
O18 C21 1_555 1_555
C22 C23 1_555 1_555
C23 H10 1_555 1_555
C24 C22 1_555 1_555
N4 C22 1_555 1_555
C25 C23 1_555 1_555
O19 C24 1_555 1_555
O45 C24 1_555 1_555
O21 Co2_4 1_555 1_555
C26 N4 1_555 1_555
C27 C25 1_555 1_555
H11 C27 1_555 1_555
C28 C26 1_555 1_555
O22 C28 1_555 1_555
O23 C28 1_555 1_555
O36 Co7_3 1_555 1_555
H18 O36 1_555 1_555
Gd6 N4 1_555 1_555
Co9 O18 1_555 1_555
Co13_2 O23 1_555 1_555
C17 O15 1_555 1_555
C18 O16 1_555 1_555
C19 C20 1_555 1_555
C25 O21 1_555 1_555
O19 Gd6 1_555 1_555
C26 C27 1_555 1_555
O22 Gd6 1_555 1_555
Co6_4 O7_2 1_555 1_555
O7_2 H5_2 1_555 1_555
O36_2 Co7_4 1_555 1_555
H18_2 O36_2 1_555 1_555
O49 Co6_4 1_555 1_555
O53 Co7_4 1_555 1_555
O7_2 H20 1_555 1_555
O36_2 H22 1_555 1_555
Co9 O1_3 1_555 1_555
O34_3 Co9 1_555 1_555
O48_2 Co9 1_555 1_555
O51_2 Co9 1_555 1_555
O35_3 Co11 1_555 1_555
O52_2 Co11 1_555 1_555
Co13 O13_3 1_555 1_555
O50_2 Co13 1_555 1_555
Co11_2 O7_3 1_555 1_555
O36_3 Co13_2 1_555 1_555
O49_2 Co11_2 1_555 1_555
O53_2 Co13_2 1_555 1_555
O35 H20_2 1_555 1_555
O13 H22_2 1_555 1_555
C15_2 C16_2 1_555 1_555
C16_2 H7_2 1_555 1_555
C17_2 C15_2 1_555 1_555
N3 C15_2 1_555 1_555
C18_2 C16_2 1_555 1_555
O14 C17_2 1_555 1_555
O16_2 Co2_5 1_555 1_555
C19_2 N3 1_555 1_555
C20_2 C18_2 1_555 1_555
H9_2 C20_2 1_555 1_555
C21_2 C19_2 1_555 1_555
O17 C21_2 1_555 1_555
O51_2 C21_2 1_555 1_555
C22_2 C23_2 1_555 1_555
C23_2 H10_2 1_555 1_555
C24_2 C22_2 1_555 1_555
N4_2 C22_2 1_555 1_555
C25_2 C23_2 1_555 1_555
O19_2 C24_2 1_555 1_555
O51 C24_2 1_555 1_555
O21_2 Co2_5 1_555 1_555
C26_2 N4_2 1_555 1_555
C27_2 C25_2 1_555 1_555
H11_2 C27_2 1_555 1_555
C28_2 C26_2 1_555 1_555
O22_2 C28_2 1_555 1_555
O50_2 C28_2 1_555 1_555
Gd3 N3 1_555 1_555
Gd4 N4_2 1_555 1_555
C17_2 O50 1_555 1_555
C18_2 O16_2 1_555 1_555
O14 Gd3 1_555 1_555
C19_2 C20_2 1_555 1_555
O17 Gd3 1_555 1_555
C25_2 O21_2 1_555 1_555
O19_2 Gd4 1_555 1_555
C26_2 C27_2 1_555 1_555
O22_2 Gd4 1_555 1_555
O7 H23_2 1_555 1_555
Gd3 N2 1_555 1_555
C8_2 C9_2 1_555 1_555
C9_2 H4_2 1_555 1_555
C10_2 C8_2 1_555 1_555
N2 C8_2 1_555 1_555
C11_2 C9_2 1_555 1_555
O8 Gd3 1_555 1_555
O10_2 Co2_6 1_555 1_555
C12_2 N2 1_555 1_555
C13_2 C11_2 1_555 1_555
H6_2 C13_2 1_555 1_555
C14_2 C12_2 1_555 1_555
O11 Gd3 1_555 1_555
O52_2 C14_2 1_555 1_555
N7 Gd3 1_555 1_555
O37 Gd3 1_555 1_555
O44 Gd3 1_555 1_555
C10_2 O8 1_555 1_555
C10_2 O49 1_555 1_555
C11_2 O10_2 1_555 1_555
C12_2 C13_2 1_555 1_555
C14_2 O11 1_555 1_555
O36 H19_2 1_555 1_555
C29_2 C30_2 1_555 1_555
C30_2 H12_2 1_555 1_555
C31_2 C29_2 1_555 1_555
N5_2 C29_2 1_555 1_555
C32_2 C30_2 1_555 1_555
O24_2 C31_2 1_555 1_555
O52 C31_2 1_555 1_555
O26_2 Co2_7 1_555 1_555
C33_2 N5_2 1_555 1_555
C34_2 C32_2 1_555 1_555
H13_2 C34_2 1_555 1_555
C35_2 C33_2 1_555 1_555
O27_2 C35_2 1_555 1_555
O49_2 C35_2 1_555 1_555
Gd4 N5_2 1_555 1_555
C32_2 O26_2 1_555 1_555
O24_2 Gd4 1_555 1_555
C33_2 C34_2 1_555 1_555
O27_2 Gd4 1_555 1_555
O34 H21_2 1_555 1_555
O1 H24_2 1_555 1_555
C1_2 C2_2 1_555 1_555
C2_2 H1_2 1_555 1_555
C3_2 C1_2 1_555 1_555
N7 C1_2 1_555 1_555
C4_2 C2_2 1_555 1_555
Co2_8 O4_2 1_555 1_555
O4_2 C4_2 1_555 1_555
C5_2 N7 1_555 1_555
C6_2 C4_2 1_555 1_555
H3_2 C6_2 1_555 1_555
C7_2 C5_2 1_555 1_555
O53_2 C7_2 1_555 1_555
C36_2 C37_2 1_555 1_555
C37_2 H14_2 1_555 1_555
C38_2 C36_2 1_555 1_555
N6_2 C36_2 1_555 1_555
C39_2 C37_2 1_555 1_555
O29_2 C38_2 1_555 1_555
O53 C38_2 1_555 1_555
O31_2 Co2_8 1_555 1_555
C40_2 N6_2 1_555 1_555
C41_2 C39_2 1_555 1_555
H15_2 C41_2 1_555 1_555
C42_2 C40_2 1_555 1_555
O32_2 C42_2 1_555 1_555
O48_2 C42_2 1_555 1_555
Gd4 N6_2 1_555 1_555
C3_2 O37 1_555 1_555
C3_2 O48 1_555 1_555
C5_2 C6_2 1_555 1_555
C7_2 O44 1_555 1_555
C39_2 O31_2 1_555 1_555
O29_2 Gd4 1_555 1_555
C40_2 C41_2 1_555 1_555
O32_2 Gd4 1_555 1_555

#END
