
###############################################################################
#
# This file contains modified crystal structure data generated from the
# MOF subset of the Cambridge Structural Database (CSD) v543 
# hosted by the Cambridge Crystallographic Data Centre (CCDC).
#
# This work is licensed under the Creative Commons
# Attribution-NonCommercial-ShareAlike 4.0 International License.
# To view a copy of this license, visit
# http://creativecommons.org/licenses/by-nc-sa/4.0/
# or send a letter to
# Creative Commons, PO Box 1866, Mountain View, CA 94042, USA.
#
# CIF created using the CSD Python API on 29 September 2022
# The structure has been converted into the P1 space group
# The structure has a 3D framework
# The original CSD entry ZIWLAV is in the monoclinic crystal system
# The framework has been calculated to contain at least 10.0% void space
# The void calculation uses a probe of radius 1.32A, grid spacing 0.4
#
###############################################################################

data_ZIWLAV
_chemical_formula_moiety         '(C128 H53 Cu7 F48 O37)n'
_symmetry_cell_setting           triclinic
_symmetry_space_group_name_H-M   'P 1'
_symmetry_Int_Tables_number      1
_space_group_name_Hall           'P 1'
loop_
_symmetry_equiv_pos_site_id
_symmetry_equiv_pos_as_xyz
1 x,y,z
_cell_length_a                   15.2191(4)
_cell_length_b                   32.8063(6)
_cell_length_c                   10.4999(3)
_cell_angle_alpha                90
_cell_angle_beta                 104.443(3)
_cell_angle_gamma                90
_cell_volume                     5076.73
loop_
_atom_site_label
_atom_site_type_symbol
_atom_site_fract_x
_atom_site_fract_y
_atom_site_fract_z
Cu8 Cu 0.02093(7) 0.28364(3) 0.00822(12)
Cu2 Cu 0.02093(7) 0.21636(3) 0.50822(12)
O6 O 0.0469(5) 0.16217(18) 0.2550(6)
C17 C 0.0068(6) 0.1459(3) 0.3362(9)
C22 C 0.0131(9) 0.0360(3) 0.2395(13)
H10 H 0.0515 0.0185 0.2055
C23 C 0.0349(9) 0.0764(3) 0.2593(13)
H11 H 0.0866 0.0869 0.2348
Cu4 Cu 0.09030(8) 0.27742(3) 0.74949(11)
Cu6 Cu 0.09030(8) 0.22258(3) 0.24949(11)
O17 O 0.1279(3) 0.22183(16) 0.4392(5)
O19 O 0.0509(3) 0.27181(10) 0.5570(5)
Cu3 Cu 0.15358(7) 0.27924(3) 0.47644(12)
F3 F 0.6214(5) 0.1470(2) 0.8944(9)
F4 F 0.5359(5) 0.1932(3) 0.4609(8)
F5 F 0.5514(5) 0.1472(2) 0.6075(8)
F6 F 0.6381(5) 0.1475(3) 0.4778(9)
F7 F 0.7487(8) 0.0603(3) 0.3897(17)
F8 F 0.8258(10) 0.0057(4) 0.4720(16)
F9 F 0.7446(9) 0.0079(3) 0.2731(17)
F10 F 0.7752(8) 0.0175(3) 0.0306(13)
O1 O 0.2613(4) 0.22142(17) 0.9137(6)
O2 O 0.2147(4) 0.26013(18) 0.7320(6)
O3 O 0.9188(4) 0.21542(17) 0.5830(5)
O4 O 0.9663(4) 0.25275(17) 0.7682(6)
O5 O 0.9877(4) 0.16296(17) 0.4338(6)
H1 H 0.1789 0.2028 0.4778
H2 H 0.0016 0.2919 0.5196
C1 C 0.2726(5) 0.2390(2) 0.8110(8)
C2 C 0.3640(5) 0.2324(3) 0.7862(9)
C3 C 0.4260(6) 0.2059(3) 0.8686(9)
H3 H 0.4075 0.1911 0.9352
C4 C 0.5139(5) 0.2009(3) 0.8542(9)
C5 C 0.5413(6) 0.2216(3) 0.7546(9)
C6 C 0.4810(7) 0.2461(4) 0.6736(11)
H4 H 0.4986 0.2597 0.6041
C7 C 0.3920(6) 0.2520(4) 0.6894(11)
H5 H 0.3516 0.2698 0.6317
C8 C 0.5784(8) 0.1736(4) 0.9509(13)
C9 C 0.6378(5) 0.2206(3) 0.7388(9)
C10 C 0.6647(6) 0.1982(3) 0.6415(10)
C11 C 0.7514(6) 0.2023(3) 0.6280(9)
H6 H 0.7693 0.1869 0.5621
C12 C 0.8141(5) 0.2282(3) 0.7072(8)
C13 C 0.7867(6) 0.2512(3) 0.8018(9)
H7 H 0.8272 0.2700 0.8555
C14 C 0.7003(6) 0.2463(3) 0.8159(10)
H8 H 0.6826 0.2615 0.8824
C15 C 0.5976(7) 0.1713(4) 0.5473(12)
C16 C 0.9070(5) 0.2327(2) 0.6855(8)
C18 C 0.9830(7) 0.1019(3) 0.3141(11)
C19 C 0.9069(9) 0.0868(3) 0.3465(14)
H9 H 0.8709 0.1044 0.3847
C20 C 0.8819(9) 0.0456(3) 0.3237(16)
C21 C 0.9357(9) 0.0201(3) 0.2684(13)
C24 C 0.7998(15) 0.0304(5) 0.362(3)
Cu10 Cu 0.15358(7) 0.22076(3) 0.97644(12)
O11 O 0.2613(4) 0.27858(17) 0.4137(6)
O13 O 0.9663(4) 0.24725(17) 0.2682(6)
O14 O 0.0469(5) 0.33783(18) 0.7550(6)
O15 O 0.1478(5) 0.3377(2) 0.4719(8)
O16 O 0.0967(5) 0.3221(2) 0.2566(9)
O18 O 0.1279(3) 0.27817(16) 0.9392(5)
O7 O 0.8522(5) 0.8377(2) 0.0281(8)
O8 O 0.9033(5) 0.8221(2) 0.2434(9)
C25 C 0.9130(9) 0.9756(3) 0.2375(14)
C26 C 0.8716(9) 0.9622(3) 0.1128(14)
C27 C 0.8609(9) 0.9204(3) 0.0823(14)
C28 C 0.8924(8) 0.8920(3) 0.1807(13)
C29 C 0.9350(9) 0.9052(3) 0.3063(13)
H13 H 0.9575 0.8857 0.3735
C30 C 0.9450(10) 0.9468(3) 0.3351(15)
H14 H 0.9738 0.9554 0.4219
C31 C 0.8358(12) 0.9912(4) 0.0033(18)
C32 C 0.8833(7) 0.8471(3) 0.1523(14)
Cu9 Cu 0.84642(7) 0.77924(3) 0.02356(12)
O12 O 0.0337(4) 0.75275(17) 0.7318(6)
F4_2 F 0.4641(5) 0.6932(3) 0.0391(8)
F6_2 F 0.3619(5) 0.6475(3) 0.0222(9)
F7_2 F 0.2513(8) 0.5603(3) 0.1103(17)
F8_2 F 0.1742(10) 0.5057(4) 0.0280(16)
F9_2 F 0.2554(9) 0.5079(3) 0.2269(17)
F10_2 F 0.2248(8) 0.5175(3) 0.4694(13)
F11 F 0.0994(9) 0.5158(3) 0.5244(10)
F12 F 0.2002(9) 0.4736(3) 0.6107(11)
O5_2 O 0.0123(4) 0.66296(17) 0.0662(6)
O9 O 0.8721(3) 0.72183(16) 0.0608(5)
H1_2 H 0.8211 0.7028 0.0222
C18_2 C 0.0170(7) 0.6019(3) 0.1859(11)
C19_2 C 0.0931(9) 0.5868(3) 0.1535(14)
H9_2 H 0.1291 0.6044 0.1153
C20_2 C 0.1181(9) 0.5456(3) 0.1763(16)
C21_2 C 0.0643(9) 0.5201(3) 0.2316(13)
C24_2 C 0.2002(15) 0.5304(5) 0.138(3)
C25_2 C 0.0870(9) 0.4756(3) 0.2625(14)
C26_2 C 0.1284(9) 0.4622(3) 0.3872(14)
C27_2 C 0.1391(9) 0.4204(3) 0.4177(14)
H12 H 0.1675 0.4118 0.5046
C28_2 C 0.1076(8) 0.3920(3) 0.3193(13)
C29_2 C 0.0650(9) 0.4052(3) 0.1937(13)
H13_2 H 0.0425 0.3857 0.1265
C30_2 C 0.0550(10) 0.4468(3) 0.1649(15)
H14_2 H 0.0262 0.4554 0.0781
C31_2 C 0.1642(12) 0.4912(4) 0.4967(18)
C32_2 C 0.1167(7) 0.3471(3) 0.3477(14)
Cu5 Cu 0.90970(8) 0.72258(3) 0.25051(11)
O11_2 O 0.7387(4) 0.77858(17) 0.0863(6)
O13_2 O 0.0337(4) 0.74725(17) 0.2318(6)
Cu1 Cu 0.90970(8) 0.77742(3) 0.75051(11)
F1 F 0.4631(5) 0.6534(3) 0.4709(9)
F2 F 0.3556(5) 0.6962(3) 0.4681(8)
F3_2 F 0.3786(5) 0.6470(2) 0.6056(9)
F5_2 F 0.4486(5) 0.6472(2) 0.8925(8)
O1_2 O 0.7387(4) 0.72142(17) 0.5863(6)
O2_2 O 0.7853(4) 0.76013(18) 0.7680(6)
O3_2 O 0.0812(4) 0.71542(17) 0.9170(5)
O10 O 0.9491(3) 0.77181(10) 0.9430(5)
H2_2 H 0.9984 0.7919 0.9804
C1_2 C 0.7274(5) 0.7390(2) 0.6890(8)
C2_2 C 0.6360(5) 0.7324(3) 0.7138(9)
C3_2 C 0.5740(6) 0.7059(3) 0.6314(9)
H3_2 H 0.5925 0.6911 0.5648
C4_2 C 0.4861(5) 0.7009(3) 0.6458(9)
C5_2 C 0.4587(6) 0.7216(3) 0.7454(9)
C6_2 C 0.5190(7) 0.7461(4) 0.8264(11)
H4_2 H 0.5014 0.7597 0.8959
C7_2 C 0.6080(6) 0.7520(4) 0.8106(11)
H5_2 H 0.6484 0.7698 0.8683
C8_2 C 0.4216(8) 0.6736(4) 0.5491(13)
C9_2 C 0.3622(5) 0.7206(3) 0.7612(9)
C10_2 C 0.3353(6) 0.6982(3) 0.8585(10)
C11_2 C 0.2486(6) 0.7023(3) 0.8720(9)
H6_2 H 0.2307 0.6869 0.9379
C12_2 C 0.1859(5) 0.7282(3) 0.7928(8)
C13_2 C 0.2133(6) 0.7512(3) 0.6982(9)
H7_2 H 0.1728 0.7700 0.6445
C14_2 C 0.2997(6) 0.7463(3) 0.6841(10)
H8_2 H 0.3174 0.7615 0.6176
C15_2 C 0.4024(7) 0.6713(4) 0.9527(12)
C16_2 C 0.0930(5) 0.7327(2) 0.8145(8)
Cu7 Cu 0.97907(7) 0.71636(3) 0.99178(12)
Cu10_2 Cu 0.84642(7) 0.72076(3) 0.52356(12)
O14_2 O 0.9531(5) 0.83783(18) 0.7450(6)
O18_2 O 0.8721(3) 0.77817(16) 0.5608(5)
O6_2 O 0.9531(5) 0.66217(18) 0.2450(6)
C17_2 C 0.9932(6) 0.6459(3) 0.1638(9)
C22_2 C 0.9869(9) 0.5360(3) 0.2605(13)
H10_2 H 0.9485 0.5185 0.2945
C23_2 C 0.9651(9) 0.5764(3) 0.2407(13)
H11_2 H 0.9134 0.5869 0.2652
Cu8_2 Cu 0.97907(7) 0.78364(3) 0.49178(12)
O7_2 O 0.1478(5) 0.1623(2) 0.9719(8)
O8_2 O 0.0967(5) 0.1779(2) 0.7566(9)
C25_3 C 0.0870(9) 0.0244(3) 0.7625(14)
C26_3 C 0.1284(9) 0.0378(3) 0.8872(14)
C27_3 C 0.1391(9) 0.0796(3) 0.9177(14)
C28_3 C 0.1076(8) 0.1080(3) 0.8193(13)
C29_3 C 0.0650(9) 0.0948(3) 0.6937(13)
H13_3 H 0.0425 0.1143 0.6265
C30_3 C 0.0550(10) 0.0532(3) 0.6649(15)
H14_3 H 0.0262 0.0446 0.5781
C31_3 C 0.1642(12) 0.0088(4) 0.9967(18)
C32_3 C 0.1167(7) 0.1529(3) 0.8477(14)
F3_3 F 0.3786(5) 0.8530(2) 0.1056(9)
F4_3 F 0.4641(5) 0.8068(3) 0.5391(8)
F5_3 F 0.4486(5) 0.8528(2) 0.3925(8)
F6_3 F 0.3619(5) 0.8525(3) 0.5222(9)
F7_3 F 0.2513(8) 0.9397(3) 0.6103(17)
F8_3 F 0.1742(10) 0.9943(4) 0.5280(16)
F9_3 F 0.2554(9) 0.9921(3) 0.7269(17)
F10_3 F 0.2248(8) 0.9825(3) 0.9694(13)
O2_3 O 0.7853(4) 0.73987(18) 0.2680(6)
O3_3 O 0.0812(4) 0.78458(17) 0.4170(5)
O5_3 O 0.0123(4) 0.83704(17) 0.5662(6)
H1_3 H 0.8211 0.7972 0.5222
O10_2 O 0.9491(3) 0.72819(10) 0.4430(5)
H2_3 H 0.9984 0.7081 0.4804
C1_3 C 0.7274(5) 0.7610(2) 0.1890(8)
C2_3 C 0.6360(5) 0.7676(3) 0.2138(9)
C3_3 C 0.5740(6) 0.7941(3) 0.1314(9)
H3_3 H 0.5925 0.8089 0.0648
C4_3 C 0.4861(5) 0.7991(3) 0.1458(9)
C5_3 C 0.4587(6) 0.7784(3) 0.2454(9)
C6_3 C 0.5190(7) 0.7539(4) 0.3264(11)
H4_3 H 0.5014 0.7403 0.3959
C7_3 C 0.6080(6) 0.7480(4) 0.3106(11)
H5_3 H 0.6484 0.7302 0.3683
C8_3 C 0.4216(8) 0.8264(4) 0.0491(13)
C9_3 C 0.3622(5) 0.7794(3) 0.2612(9)
C10_3 C 0.3353(6) 0.8018(3) 0.3585(10)
C11_3 C 0.2486(6) 0.7977(3) 0.3720(9)
H6_3 H 0.2307 0.8131 0.4379
C12_3 C 0.1859(5) 0.7718(3) 0.2928(8)
C13_3 C 0.2133(6) 0.7488(3) 0.1982(9)
H7_3 H 0.1728 0.7300 0.1445
C14_3 C 0.2997(6) 0.7537(3) 0.1841(10)
H8_3 H 0.3174 0.7385 0.1176
C15_3 C 0.4024(7) 0.8287(4) 0.4527(12)
C16_3 C 0.0930(5) 0.7673(2) 0.3145(8)
C18_3 C 0.0170(7) 0.8981(3) 0.6859(11)
C19_3 C 0.0931(9) 0.9132(3) 0.6535(14)
H9_3 H 0.1291 0.8956 0.6153
C20_3 C 0.1181(9) 0.9544(3) 0.6763(16)
C21_3 C 0.0643(9) 0.9799(3) 0.7316(13)
C24_3 C 0.2002(15) 0.9696(5) 0.638(3)
O15_2 O 0.8522(5) 0.6623(2) 0.5281(8)
O16_2 O 0.9033(5) 0.6779(2) 0.7434(9)
C17_3 C 0.9932(6) 0.8541(3) 0.6638(9)
C22_3 C 0.9869(9) 0.9640(3) 0.7605(13)
H10_3 H 0.9485 0.9815 0.7945
C23_3 C 0.9651(9) 0.9236(3) 0.7407(13)
H11_3 H 0.9134 0.9131 0.7652
O19_2 O 0.0509(3) 0.22819(10) 0.0570(5)
C17_4 C 0.0068(6) 0.3541(3) 0.8362(9)
C22_4 C 0.0131(9) 0.4640(3) 0.7395(13)
H10_4 H 0.0515 0.4815 0.7055
C23_4 C 0.0349(9) 0.4236(3) 0.7593(13)
H11_4 H 0.0866 0.4131 0.7348
F1_2 F 0.5369(5) 0.3466(3) 0.5291(9)
F2_2 F 0.6444(5) 0.3038(3) 0.5319(8)
F3_4 F 0.6214(5) 0.3530(2) 0.3944(9)
F5_4 F 0.5514(5) 0.3528(2) 0.1075(8)
O2_4 O 0.2147(4) 0.23987(18) 0.2320(6)
O3_4 O 0.9188(4) 0.28458(17) 0.0830(5)
H2_4 H 0.0016 0.2081 0.0196
C1_4 C 0.2726(5) 0.2610(2) 0.3110(8)
C2_4 C 0.3640(5) 0.2676(3) 0.2862(9)
C3_4 C 0.4260(6) 0.2941(3) 0.3686(9)
H3_4 H 0.4075 0.3089 0.4352
C4_4 C 0.5139(5) 0.2991(3) 0.3542(9)
C5_4 C 0.5413(6) 0.2784(3) 0.2546(9)
C6_4 C 0.4810(7) 0.2539(4) 0.1736(11)
H4_4 H 0.4986 0.2403 0.1041
C7_4 C 0.3920(6) 0.2480(4) 0.1894(11)
H5_4 H 0.3516 0.2302 0.1317
C8_4 C 0.5784(8) 0.3264(4) 0.4509(13)
C9_4 C 0.6378(5) 0.2794(3) 0.2388(9)
C10_4 C 0.6647(6) 0.3018(3) 0.1415(10)
C11_4 C 0.7514(6) 0.2977(3) 0.1280(9)
H6_4 H 0.7693 0.3131 0.0621
C12_4 C 0.8141(5) 0.2718(3) 0.2072(8)
C13_4 C 0.7867(6) 0.2488(3) 0.3018(9)
H7_4 H 0.8272 0.2300 0.3555
C14_4 C 0.7003(6) 0.2537(3) 0.3159(10)
H8_4 H 0.6826 0.2385 0.3824
C15_4 C 0.5976(7) 0.3287(4) 0.0473(12)
C16_4 C 0.9070(5) 0.2673(2) 0.1855(8)
F4_4 F 0.5359(5) 0.3068(3) 0.9609(8)
F6_4 F 0.6381(5) 0.3525(3) 0.9778(9)
F7_4 F 0.7487(8) 0.4397(3) 0.8897(17)
F8_4 F 0.8258(10) 0.4943(4) 0.9720(16)
F9_4 F 0.7446(9) 0.4921(3) 0.7731(17)
F10_4 F 0.7752(8) 0.4825(3) 0.5306(13)
F11_2 F 0.9006(9) 0.4842(3) 0.4756(10)
F12_2 F 0.7998(9) 0.5264(3) 0.3893(11)
O5_4 O 0.9877(4) 0.33704(17) 0.9338(6)
H1_4 H 0.1789 0.2972 0.9778
C18_4 C 0.9830(7) 0.3981(3) 0.8141(11)
C19_4 C 0.9069(9) 0.4132(3) 0.8465(14)
H9_4 H 0.8709 0.3956 0.8847
C20_4 C 0.8819(9) 0.4544(3) 0.8237(16)
C21_4 C 0.9357(9) 0.4799(3) 0.7684(13)
C24_4 C 0.7998(15) 0.4696(5) 0.862(3)
C25_4 C 0.9130(9) 0.5244(3) 0.7375(14)
C26_4 C 0.8716(9) 0.5378(3) 0.6128(14)
C27_4 C 0.8609(9) 0.5796(3) 0.5823(14)
H12_2 H 0.8325 0.5882 0.4954
C28_4 C 0.8924(8) 0.6080(3) 0.6807(13)
C29_4 C 0.9350(9) 0.5948(3) 0.8063(13)
H13_4 H 0.9575 0.6143 0.8735
C30_4 C 0.9450(10) 0.5532(3) 0.8351(15)
H14_4 H 0.9738 0.5446 0.9219
C31_4 C 0.8358(12) 0.5088(4) 0.5033(18)
C32_4 C 0.8833(7) 0.6529(3) 0.6523(14)
F1_3 F 0.5369(5) 0.1534(3) 0.0291(9)
F2_3 F 0.6444(5) 0.1962(3) 0.0319(8)
F11_3 F 0.9006(9) 0.0158(3) 0.9756(10)
F12_3 F 0.7998(9) 0.9736(3) 0.8893(11)
H12_3 H 0.8325 0.9118 0.9954
F12_4 F 0.2002(9) 0.0264(3) 0.1107(11)
H12_4 H 0.1675 0.0882 0.0046
F11_4 F 0.0994(9) 0.9842(3) 0.0244(10)
F1_4 F 0.4631(5) 0.8466(3) 0.9709(9)
F2_4 F 0.3556(5) 0.8038(3) 0.9681(8)
loop_
_geom_bond_atom_site_label_1
_geom_bond_atom_site_label_2
_geom_bond_site_symmetry_1
_geom_bond_site_symmetry_2
O6 C17 1_555 1_555
H10 C22 1_555 1_555
H11 C23 1_555 1_555
Cu6 O6 1_555 1_555
O17 Cu2 1_555 1_555
O19 Cu2 1_555 1_555
C22 C23 1_555 1_555
Cu4 O19 1_555 1_555
Cu6 O17 1_555 1_555
Cu4 O2 1_555 1_555
Cu3 O2 1_555 1_555
F3 C8 1_555 1_555
F4 C15 1_555 1_555
F5 C15 1_555 1_555
F6 C15 1_555 1_555
F7 C24 1_555 1_555
F8 C24 1_555 1_555
F9 C24 1_555 1_555
O1 C1 1_555 1_555
O2 C1 1_555 1_555
O3 C16 1_555 1_555
O4 C16 1_555 1_555
O17 Cu3 1_555 1_555
H1 O17 1_555 1_555
H2 O19 1_555 1_555
C1 C2 1_555 1_555
C2 C3 1_555 1_555
C3 H3 1_555 1_555
C4 C3 1_555 1_555
C5 C4 1_555 1_555
C6 C5 1_555 1_555
H4 C6 1_555 1_555
C7 C2 1_555 1_555
H5 C7 1_555 1_555
C8 C4 1_555 1_555
C9 C5 1_555 1_555
C10 C9 1_555 1_555
C11 C10 1_555 1_555
H6 C11 1_555 1_555
C12 C11 1_555 1_555
C13 C12 1_555 1_555
H7 C13 1_555 1_555
C14 C9 1_555 1_555
H8 C14 1_555 1_555
C15 C10 1_555 1_555
C16 C12 1_555 1_555
C19 C18 1_555 1_555
H9 C19 1_555 1_555
C20 C19 1_555 1_555
C21 C20 1_555 1_555
C24 C20 1_555 1_555
Cu10 O1 1_555 1_555
O11 Cu3 1_555 1_555
O14 Cu4 1_555 1_555
O15 Cu3 1_555 1_555
O16 Cu3 1_555 1_555
O18 Cu4 1_555 1_555
Cu3 O19 1_555 1_555
C6 C7 1_555 1_555
C13 C14 1_555 1_555
Cu10 O18 1_555 1_555
O7 C32 1_555 1_555
O8 C32 1_555 1_555
C26 C25 1_555 1_555
C27 C26 1_555 1_555
C28 C27 1_555 1_555
C29 C28 1_555 1_555
H13 C29 1_555 1_555
C30 C25 1_555 1_555
H14 C30 1_555 1_555
C31 C26 1_555 1_555
C32 C28 1_555 1_555
Cu9 O7 1_555 1_555
O8 Cu9 1_555 1_555
C29 C30 1_555 1_555
F7_2 C24_2 1_555 1_555
F8_2 C24_2 1_555 1_555
F9_2 C24_2 1_555 1_555
F10_2 C31_2 1_555 1_555
F11 C31_2 1_555 1_555
F12 C31_2 1_555 1_555
O15 C32_2 1_555 1_555
O16 C32_2 1_555 1_555
O9 Cu9 1_555 1_555
H1_2 O9 1_555 1_555
C19_2 C18_2 1_555 1_555
H9_2 C19_2 1_555 1_555
C20_2 C19_2 1_555 1_555
C21_2 C20_2 1_555 1_555
C24_2 C20_2 1_555 1_555
C25_2 C21_2 1_555 1_555
C26_2 C25_2 1_555 1_555
C27_2 C26_2 1_555 1_555
H12 C27_2 1_555 1_555
C28_2 C27_2 1_555 1_555
C29_2 C28_2 1_555 1_555
H13_2 C29_2 1_555 1_555
C30_2 C25_2 1_555 1_555
H14_2 C30_2 1_555 1_555
C31_2 C26_2 1_555 1_555
C32_2 C28_2 1_555 1_555
Cu5 O9 1_555 1_555
O11_2 Cu9 1_555 1_555
C29_2 C30_2 1_555 1_555
Cu1 O2_2 1_555 1_555
F1 C8_2 1_555 1_555
F2 C8_2 1_555 1_555
F3_2 C8_2 1_555 1_555
F5_2 C15_2 1_555 1_555
O1_2 C1_2 1_555 1_555
O2_2 C1_2 1_555 1_555
O3_2 C16_2 1_555 1_555
O12 C16_2 1_555 1_555
O10 Cu1 1_555 1_555
H2_2 O10 1_555 1_555
C1_2 C2_2 1_555 1_555
C2_2 C3_2 1_555 1_555
C3_2 H3_2 1_555 1_555
C4_2 C3_2 1_555 1_555
C5_2 C4_2 1_555 1_555
C6_2 C5_2 1_555 1_555
H4_2 C6_2 1_555 1_555
C7_2 C2_2 1_555 1_555
H5_2 C7_2 1_555 1_555
C8_2 C4_2 1_555 1_555
C9_2 C5_2 1_555 1_555
C10_2 C9_2 1_555 1_555
C11_2 C10_2 1_555 1_555
H6_2 C11_2 1_555 1_555
C12_2 C11_2 1_555 1_555
C13_2 C12_2 1_555 1_555
H7_2 C13_2 1_555 1_555
C14_2 C9_2 1_555 1_555
H8_2 C14_2 1_555 1_555
C15_2 C10_2 1_555 1_555
C16_2 C12_2 1_555 1_555
Cu10_2 O1_2 1_555 1_555
O14_2 Cu1 1_555 1_555
O18_2 Cu1 1_555 1_555
O10 Cu7 1_555 1_555
C6_2 C7_2 1_555 1_555
C13_2 C14_2 1_555 1_555
Cu10_2 O18_2 1_555 1_555
O6_2 C17_2 1_555 1_555
H10_2 C22_2 1_555 1_555
H11_2 C23_2 1_555 1_555
Cu5 O6_2 1_555 1_555
C22_2 C23_2 1_555 1_555
O7_2 C32_3 1_555 1_555
O8_2 C32_3 1_555 1_555
C26_3 C25_3 1_555 1_555
C27_3 C26_3 1_555 1_555
C28_3 C27_3 1_555 1_555
C29_3 C28_3 1_555 1_555
H13_3 C29_3 1_555 1_555
C30_3 C25_3 1_555 1_555
H14_3 C30_3 1_555 1_555
C31_3 C26_3 1_555 1_555
C32_3 C28_3 1_555 1_555
Cu10 O7_2 1_555 1_555
O8_2 Cu10 1_555 1_555
C29_3 C30_3 1_555 1_555
Cu5 O2_3 1_555 1_555
Cu10_2 O2_3 1_555 1_555
F3_3 C8_3 1_555 1_555
F4_3 C15_3 1_555 1_555
F5_3 C15_3 1_555 1_555
F6_3 C15_3 1_555 1_555
F7_3 C24_3 1_555 1_555
F8_3 C24_3 1_555 1_555
F9_3 C24_3 1_555 1_555
O11_2 C1_3 1_555 1_555
O2_3 C1_3 1_555 1_555
O3_3 C16_3 1_555 1_555
O13_2 C16_3 1_555 1_555
H1_3 O18_2 1_555 1_555
O10_2 Cu5 1_555 1_555
H2_3 O10_2 1_555 1_555
C1_3 C2_3 1_555 1_555
C2_3 C3_3 1_555 1_555
C3_3 H3_3 1_555 1_555
C4_3 C3_3 1_555 1_555
C5_3 C4_3 1_555 1_555
C6_3 C5_3 1_555 1_555
H4_3 C6_3 1_555 1_555
C7_3 C2_3 1_555 1_555
H5_3 C7_3 1_555 1_555
C8_3 C4_3 1_555 1_555
C9_3 C5_3 1_555 1_555
C10_3 C9_3 1_555 1_555
C11_3 C10_3 1_555 1_555
H6_3 C11_3 1_555 1_555
C12_3 C11_3 1_555 1_555
C13_3 C12_3 1_555 1_555
H7_3 C13_3 1_555 1_555
C14_3 C9_3 1_555 1_555
H8_3 C14_3 1_555 1_555
C15_3 C10_3 1_555 1_555
C16_3 C12_3 1_555 1_555
C19_3 C18_3 1_555 1_555
H9_3 C19_3 1_555 1_555
C20_3 C19_3 1_555 1_555
C21_3 C20_3 1_555 1_555
C24_3 C20_3 1_555 1_555
Cu8_2 O18_2 1_555 1_555
O15_2 Cu10_2 1_555 1_555
O16_2 Cu10_2 1_555 1_555
Cu10_2 O10_2 1_555 1_555
O10_2 Cu8_2 1_555 1_555
C6_3 C7_3 1_555 1_555
C13_3 C14_3 1_555 1_555
O14_2 C17_3 1_555 1_555
H10_3 C22_3 1_555 1_555
H11_3 C23_3 1_555 1_555
C22_3 C23_3 1_555 1_555
O19_2 Cu8 1_555 1_555
Cu6 O19_2 1_555 1_555
O14 C17_4 1_555 1_555
H10_4 C22_4 1_555 1_555
H11_4 C23_4 1_555 1_555
C22_4 C23_4 1_555 1_555
Cu6 O2_4 1_555 1_555
F1_2 C8_4 1_555 1_555
F2_2 C8_4 1_555 1_555
F3_4 C8_4 1_555 1_555
F5_4 C15_4 1_555 1_555
O11 C1_4 1_555 1_555
O2_4 C1_4 1_555 1_555
O3_4 C16_4 1_555 1_555
O13 C16_4 1_555 1_555
H2_4 O19_2 1_555 1_555
C1_4 C2_4 1_555 1_555
C2_4 C3_4 1_555 1_555
C3_4 H3_4 1_555 1_555
C4_4 C3_4 1_555 1_555
C5_4 C4_4 1_555 1_555
C6_4 C5_4 1_555 1_555
H4_4 C6_4 1_555 1_555
C7_4 C2_4 1_555 1_555
H5_4 C7_4 1_555 1_555
C8_4 C4_4 1_555 1_555
C9_4 C5_4 1_555 1_555
C10_4 C9_4 1_555 1_555
C11_4 C10_4 1_555 1_555
H6_4 C11_4 1_555 1_555
C12_4 C11_4 1_555 1_555
C13_4 C12_4 1_555 1_555
H7_4 C13_4 1_555 1_555
C14_4 C9_4 1_555 1_555
H8_4 C14_4 1_555 1_555
C15_4 C10_4 1_555 1_555
C16_4 C12_4 1_555 1_555
C6_4 C7_4 1_555 1_555
C13_4 C14_4 1_555 1_555
F7_4 C24_4 1_555 1_555
F8_4 C24_4 1_555 1_555
F9_4 C24_4 1_555 1_555
F10_4 C31_4 1_555 1_555
F11_2 C31_4 1_555 1_555
F12_2 C31_4 1_555 1_555
O15_2 C32_4 1_555 1_555
O16_2 C32_4 1_555 1_555
H1_4 O18 1_555 1_555
C19_4 C18_4 1_555 1_555
H9_4 C19_4 1_555 1_555
C20_4 C19_4 1_555 1_555
C21_4 C20_4 1_555 1_555
C24_4 C20_4 1_555 1_555
C25_4 C21_4 1_555 1_555
C26_4 C25_4 1_555 1_555
C27_4 C26_4 1_555 1_555
H12_2 C27_4 1_555 1_555
C28_4 C27_4 1_555 1_555
C29_4 C28_4 1_555 1_555
H13_4 C29_4 1_555 1_555
C30_4 C25_4 1_555 1_555
H14_4 C30_4 1_555 1_555
C31_4 C26_4 1_555 1_555
C32_4 C28_4 1_555 1_555
C29_4 C30_4 1_555 1_555

#END
