
###############################################################################
#
# This file contains modified crystal structure data generated from the
# MOF subset of the Cambridge Structural Database (CSD) v543 
# hosted by the Cambridge Crystallographic Data Centre (CCDC).
#
# This work is licensed under the Creative Commons
# Attribution-NonCommercial-ShareAlike 4.0 International License.
# To view a copy of this license, visit
# http://creativecommons.org/licenses/by-nc-sa/4.0/
# or send a letter to
# Creative Commons, PO Box 1866, Mountain View, CA 94042, USA.
#
# CIF created using the CSD Python API on 29 September 2022
# The structure has been converted into the P1 space group
# The structure has a 3D framework
# The original CSD entry ZIWQII is in the triclinic crystal system
# The framework has been calculated to contain at least 10.0% void space
# The void calculation uses a probe of radius 1.32A, grid spacing 0.4
#
###############################################################################

data_ZIWQII
_chemical_formula_moiety         '(C34 H18 Cu3 N16)n'
_symmetry_cell_setting           triclinic
_symmetry_space_group_name_H-M   'P 1'
_symmetry_Int_Tables_number      1
_space_group_name_Hall           'P 1'
loop_
_symmetry_equiv_pos_site_id
_symmetry_equiv_pos_as_xyz
1 x,y,z
_cell_length_a                   5.823(2)
_cell_length_b                   11.085(5)
_cell_length_c                   13.897(5)
_cell_angle_alpha                95.233(15)
_cell_angle_beta                 99.184(14)
_cell_angle_gamma                100.670(14)
_cell_volume                     863.445
loop_
_atom_site_label
_atom_site_type_symbol
_atom_site_fract_x
_atom_site_fract_y
_atom_site_fract_z
_atom_site_U_iso_or_equiv
_atom_site_thermal_displace_type
N19 N 0.2092(7) 0.7331(4) 0.2360(3) 0.0214 Uani
N21 N 0.0369(8) 0.8136(4) 0.4310(3) 0.0275 Uani
H15 H 0.0573 0.0506 0.8909 0.0240 Uiso
H16 H 0.2264 0.0191 0.7535 0.0250 Uiso
Cu8 Cu 0.48754(10) 0.08405(6) 0.61464(4) 0.0246 Uani
N15 N 0.2407(7) 0.8909(4) 0.4651(3) 0.0219 Uani
N16 N 0.2398(7) 0.9386(4) 0.5583(3) 0.0183 Uani
C30 C 0.0700(9) 0.9806(4) 0.7531(3) 0.0209 Uani
C34 C 0.0293(8) 0.8833(4) 0.5778(3) 0.0208 Uani
Cu6 Cu 0.51246(10) 0.91595(6) 0.38536(4) 0.0246 Uani
Cu12 Cu 0.08313(11) 0.24757(7) 0.71363(5) 0.0317 Uani
N23 N 0.7602(7) 0.0614(4) 0.4417(3) 0.0183 Uani
Cu2 Cu 0.91687(11) 0.75243(7) 0.28637(5) 0.0317 Uani
N1 N 0.5713(7) 0.7063(4) 0.2429(3) 0.0193 Uani
N2 N 0.4326(7) 0.7798(4) 0.2772(3) 0.0195 Uani
N4 N 0.1969(7) 0.6304(4) 0.1753(3) 0.0243 Uani
N5 N 0.1000(8) 0.1934(4) 0.5000(3) 0.0317 Uani
C1 C 0.4188(8) 0.6140(4) 0.1820(3) 0.0179 Uani
C2 C 0.4666(9) 0.4980(4) 0.1349(4) 0.0213 Uani
C3 C 0.6768(10) 0.4573(5) 0.1608(5) 0.0347 Uani
H1 H 0.8052 0.5094 0.2022 0.0420 Uiso
C4 C 0.6964(9) 0.3382(5) 0.1249(5) 0.0339 Uani
H2 H 0.8390 0.3123 0.1416 0.0410 Uiso
C5 C 0.5049(9) 0.2583(4) 0.0646(3) 0.0204 Uani
C6 C 0.3010(10) 0.3019(5) 0.0361(4) 0.0324 Uani
C7 C 0.2816(10) 0.4209(5) 0.0703(4) 0.0320 Uani
H4 H 0.1429 0.4487 0.0496 0.0380 Uiso
C8 C 0.5084(8) 0.1250(4) 0.0340(3) 0.0156 Uani
C10 C 0.3826(8) 0.0298(4) 0.0774(3) 0.0152 Uani
C11 C 0.2665(8) 0.0563(4) 0.1634(3) 0.0165 Uani
C12 C 0.0321(9) 0.0003(4) 0.1645(3) 0.0207 Uani
C14 C 0.0615(8) 0.0961(4) 0.3304(3) 0.0178 Uani
C15 C 0.2948(9) 0.1535(5) 0.3294(4) 0.0229 Uani
H8 H 0.3838 0.2050 0.3845 0.0270 Uiso
C16 C 0.3954(9) 0.1344(5) 0.2465(4) 0.0225 Uani
H9 H 0.5507 0.1742 0.2465 0.0270 Uiso
N9 N 0.4287(7) 0.2937(4) 0.7571(3) 0.0193 Uani
N10 N 0.5674(7) 0.2202(4) 0.7228(3) 0.0195 Uani
N11 N 0.7908(7) 0.2669(4) 0.7640(3) 0.0214 Uani
N12 N 0.8031(7) 0.3696(4) 0.8247(3) 0.0243 Uani
N13 N 0.9000(8) 0.8066(4) 0.5000(3) 0.0317 Uani
C18 C 0.5812(8) 0.3860(4) 0.8180(3) 0.0179 Uani
C19 C 0.5334(9) 0.5020(4) 0.8651(4) 0.0213 Uani
C20 C 0.3232(10) 0.5427(5) 0.8392(5) 0.0347 Uani
H10 H 0.1948 0.4906 0.7978 0.0420 Uiso
C21 C 0.3036(9) 0.6618(5) 0.8751(5) 0.0339 Uani
H11 H 0.1610 0.6877 0.8584 0.0410 Uiso
C22 C 0.4951(9) 0.7417(4) 0.9354(3) 0.0204 Uani
C23 C 0.6990(10) 0.6981(5) 0.9639(4) 0.0324 Uani
C24 C 0.7184(10) 0.5791(5) 0.9297(4) 0.0320 Uani
H13 H 0.8571 0.5513 0.9504 0.0380 Uiso
C25 C 0.4916(8) 0.8750(4) 0.9660(3) 0.0156 Uani
C27 C 0.6174(8) 0.9702(4) 0.9226(3) 0.0152 Uani
C28 C 0.7335(8) 0.9437(4) 0.8366(3) 0.0165 Uani
C29 C 0.9679(9) 0.9997(4) 0.8355(3) 0.0207 Uani
C31 C 0.9385(8) 0.9039(4) 0.6696(3) 0.0178 Uani
C32 C 0.7052(9) 0.8465(5) 0.6706(4) 0.0229 Uani
H17 H 0.6162 0.7950 0.6155 0.0270 Uiso
C33 C 0.6046(9) 0.8656(5) 0.7535(4) 0.0225 Uani
H18 H 0.4493 0.8258 0.7535 0.0270 Uiso
N6 N 0.9631(8) 0.1864(4) 0.5690(3) 0.0275 Uani
N7 N 0.7593(7) 0.1091(4) 0.5349(3) 0.0219 Uani
C13 C 0.9300(9) 0.0194(4) 0.2469(3) 0.0209 Uani
C17 C 0.9707(8) 0.1167(4) 0.4222(3) 0.0208 Uani
H6 H 0.9427 0.9494 0.1091 0.0240 Uiso
H7 H 0.7736 0.9809 0.2465 0.0250 Uiso
H3 H 0.1740 0.2509 0.9932 0.0390 Uiso
C9 C 0.6241(8) 0.0933(4) 0.9581(3) 0.0165 Uani
H5 H 0.7088 0.1561 0.9300 0.0200 Uiso
H12 H 0.8260 0.7491 0.0068 0.0390 Uiso
C26 C 0.3759(8) 0.9067(4) 0.0419(3) 0.0165 Uani
H14 H 0.2912 0.8439 0.0700 0.0200 Uiso
loop_
_atom_site_aniso_label
_atom_site_aniso_U_11
_atom_site_aniso_U_22
_atom_site_aniso_U_33
_atom_site_aniso_U_23
_atom_site_aniso_U_13
_atom_site_aniso_U_12
N19 0.0149 0.023 0.025 -0.0079 0.0064 0.0038
N21 0.021 0.035 0.021 -0.0124 0.0106 -0.0064
Cu8 0.0213 0.0242 0.0235 -0.0112 0.0096 -0.0051
N15 0.02 0.026 0.0171 -0.008 0.0102 -0.003
N16 0.017 0.023 0.014 -0.0055 0.008 0.0012
C30 0.018 0.024 0.02 -0.0011 0.0089 -0.0006
C34 0.019 0.024 0.018 -0.0044 0.0089 -0.0009
Cu6 0.0213 0.0242 0.0235 -0.0112 0.0096 -0.0051
Cu12 0.0179 0.0421 0.0314 -0.0135 0.0046 0.0057
N23 0.017 0.023 0.014 -0.0055 0.008 0.0012
Cu2 0.0179 0.0421 0.0314 -0.0135 0.0046 0.0057
N1 0.0152 0.019 0.023 -0.0065 0.0071 0.0031
N2 0.0155 0.02 0.022 -0.0064 0.0076 0.0021
N4 0.019 0.023 0.028 -0.0119 0.0067 0.0019
N5 0.025 0.04 0.024 -0.0134 0.0153 -0.01
C1 0.018 0.015 0.021 -0.0019 0.0084 0.0022
C2 0.024 0.015 0.026 -0.0032 0.0127 0.0023
C3 0.02 0.022 0.056 -0.014 0.006 -0.0012
C4 0.021 0.023 0.056 -0.009 0.009 0.0048
C5 0.026 0.015 0.022 -0.0017 0.0143 0.0023
C6 0.035 0.024 0.032 -0.012 -0.006 0.008
C7 0.035 0.025 0.033 -0.009 -0.005 0.014
C8 0.017 0.013 0.017 -0.0027 0.0072 0.0019
C10 0.016 0.017 0.013 -0.0031 0.0068 0.0032
C11 0.02 0.016 0.015 -0.0016 0.0082 0.0052
C12 0.023 0.021 0.017 -0.0042 0.0069 0.0019
C14 0.019 0.02 0.015 -0.0017 0.0086 0.0023
C15 0.021 0.026 0.018 -0.0073 0.007 -0.0026
C16 0.018 0.027 0.021 -0.0049 0.0104 -0.0015
N9 0.0152 0.019 0.023 -0.0065 0.0071 0.0031
N10 0.0155 0.02 0.022 -0.0064 0.0076 0.0021
N11 0.0149 0.023 0.025 -0.0079 0.0064 0.0038
N12 0.019 0.023 0.028 -0.0119 0.0067 0.0019
N13 0.025 0.04 0.024 -0.0134 0.0153 -0.01
C18 0.018 0.015 0.021 -0.0019 0.0084 0.0022
C19 0.024 0.015 0.026 -0.0032 0.0127 0.0023
C20 0.02 0.022 0.056 -0.014 0.006 -0.0012
C21 0.021 0.023 0.056 -0.009 0.009 0.0048
C22 0.026 0.015 0.022 -0.0017 0.0143 0.0023
C23 0.035 0.024 0.032 -0.012 -0.006 0.008
C24 0.035 0.025 0.033 -0.009 -0.005 0.014
C25 0.017 0.013 0.017 -0.0027 0.0072 0.0019
C27 0.016 0.017 0.013 -0.0031 0.0068 0.0032
C28 0.02 0.016 0.015 -0.0016 0.0082 0.0052
C29 0.023 0.021 0.017 -0.0042 0.0069 0.0019
C31 0.019 0.02 0.015 -0.0017 0.0086 0.0023
C32 0.021 0.026 0.018 -0.0073 0.007 -0.0026
C33 0.018 0.027 0.021 -0.0049 0.0104 -0.0015
N6 0.021 0.035 0.021 -0.0124 0.0106 -0.0064
N7 0.02 0.026 0.0171 -0.008 0.0102 -0.003
C13 0.018 0.024 0.02 -0.0011 0.0089 -0.0006
C17 0.019 0.024 0.018 -0.0044 0.0089 -0.0009
C9 0.019 0.013 0.018 -0.0005 0.0089 0.0008
C26 0.019 0.013 0.018 -0.0005 0.0089 0.0008
loop_
_geom_bond_atom_site_label_1
_geom_bond_atom_site_label_2
_geom_bond_site_symmetry_1
_geom_bond_site_symmetry_2
N21 N15 1_555 1_555
N15 N16 1_555 1_555
N16 C34 1_555 1_555
Cu6 N15 1_555 1_555
Cu6 N2 1_555 1_555
Cu2 N1 1_555 1_555
N1 N2 1_555 1_555
N2 N19 1_555 1_555
N19 N4 1_555 1_555
N4 C1 1_555 1_555
C1 N1 1_555 1_555
C2 C1 1_555 1_555
C3 C2 1_555 1_555
H1 C3 1_555 1_555
C4 C3 1_555 1_555
H2 C4 1_555 1_555
C5 C4 1_555 1_555
C6 C5 1_555 1_555
C7 C2 1_555 1_555
H4 C7 1_555 1_555
C8 C5 1_555 1_555
C10 C8 1_555 1_555
C11 C10 1_555 1_555
C12 C11 1_555 1_555
C15 C14 1_555 1_555
H8 C15 1_555 1_555
C16 C11 1_555 1_555
H9 C16 1_555 1_555
C6 C7 1_555 1_555
C15 C16 1_555 1_555
N9 N10 1_555 1_555
N10 N11 1_555 1_555
N11 N12 1_555 1_555
N12 C18 1_555 1_555
C18 N9 1_555 1_555
C19 C18 1_555 1_555
C20 C19 1_555 1_555
H10 C20 1_555 1_555
C21 C20 1_555 1_555
H11 C21 1_555 1_555
C22 C21 1_555 1_555
C23 C22 1_555 1_555
C24 C19 1_555 1_555
H13 C24 1_555 1_555
C25 C22 1_555 1_555
C28 C27 1_555 1_555
C29 C28 1_555 1_555
C32 C31 1_555 1_555
H17 C32 1_555 1_555
C33 C28 1_555 1_555
H18 C33 1_555 1_555
Cu8 N10 1_555 1_555
Cu12 N9 1_555 1_555
C23 C24 1_555 1_555
C25 C27 1_555 1_555
C32 C33 1_555 1_555
N6 N7 1_555 1_555
N7 N23 1_555 1_555
N23 C17 1_555 1_555
Cu8 N7 1_555 1_555
H5 C9 1_555 1_555
H14 C26 1_555 1_555

#END
