
###############################################################################
#
# This file contains modified crystal structure data generated from the
# MOF subset of the Cambridge Structural Database (CSD) v543 
# hosted by the Cambridge Crystallographic Data Centre (CCDC).
#
# This work is licensed under the Creative Commons
# Attribution-NonCommercial-ShareAlike 4.0 International License.
# To view a copy of this license, visit
# http://creativecommons.org/licenses/by-nc-sa/4.0/
# or send a letter to
# Creative Commons, PO Box 1866, Mountain View, CA 94042, USA.
#
# CIF created using the CSD Python API on 29 September 2022
# The structure has been converted into the P1 space group
# The structure has a 3D framework
# The original CSD entry ZIWROP is in the triclinic crystal system
# The framework has been calculated to contain at least 10.0% void space
# The void calculation uses a probe of radius 1.32A, grid spacing 0.4
#
###############################################################################

data_ZIWROP
_chemical_formula_moiety         '(C36 H52 O52 P12 U6 Zn2)n'
_symmetry_cell_setting           triclinic
_symmetry_space_group_name_H-M   'P 1'
_symmetry_Int_Tables_number      1
_space_group_name_Hall           'P 1'
loop_
_symmetry_equiv_pos_site_id
_symmetry_equiv_pos_as_xyz
1 x,y,z
_cell_length_a                   12.2265(5)
_cell_length_b                   13.8550(5)
_cell_length_c                   14.9627(6)
_cell_angle_alpha                73.4580(10)
_cell_angle_beta                 71.5370(10)
_cell_angle_gamma                78.0260(10)
_cell_volume                     2285.43
loop_
_atom_site_label
_atom_site_type_symbol
_atom_site_fract_x
_atom_site_fract_y
_atom_site_fract_z
Zn1 Zn 0.0424(2) 0.5037(2) 0.4179(2)
O1 O 0.1332(10) 0.4135(9) 0.3570(9)
H1 H 0.1164 0.3557 0.3923
H2 H 0.1910 0.4280 0.3081
O31 O 0.1099(7) 0.5261(6) 0.5095(6)
O34 O 0.0449(18) 0.6417(16) 0.3162(10)
U11 U 0.45747(4) 0.09917(3) 0.24282(3)
O37 O 0.1073(6) 0.0327(5) 0.4694(6)
U8 U 0.33391(4) 0.57438(3) 0.05628(3)
U1 U 0.08682(3) 0.85498(3) 0.51289(3)
P1 P 0.5557(3) 0.6158(2) 0.8110(2)
P2 P 0.8088(2) 0.3993(2) 0.5032(2)
P3 P 0.3886(2) 0.8470(2) 0.3791(2)
P4 P 0.0877(3) 0.6955(4) 0.2114(3)
O2 O 0.5021(7) 0.5759(6) 0.9215(6)
O3 O 0.6687(7) 0.5420(6) 0.7902(6)
O5 O 0.5776(7) 0.7242(6) 0.7798(6)
O6 O 0.8901(7) 0.4739(6) 0.4905(6)
O7 O 0.8667(7) 0.3193(5) 0.4446(6)
O8 O 0.7625(7) 0.3512(6) 0.6101(6)
H5 H 0.7103 0.3185 0.6177
O9 O 0.3868(7) 0.9435(6) 0.2988(6)
O10 O 0.2854(6) 0.8470(6) 0.4691(6)
O11 O 0.3974(7) 0.7557(6) 0.3355(6)
H6 H 0.3377 0.7288 0.3610
O12 O 0.1667(14) 0.7689(16) 0.2041(19)
H7 H 0.1847 0.8032 0.1483
O14 O 0.1477(7) 0.6210(7) 0.1491(6)
O21 O 0.0707(7) 0.8493(6) 0.6367(6)
O22 O 0.0975(7) 0.8630(6) 0.3902(6)
C1 C 0.5056(10) 0.6167(9) 0.6434(8)
C2 C 0.5696(10) 0.5384(9) 0.6032(9)
H9 H 0.5810 0.4745 0.6435
C3 C 0.6190(10) 0.5524(9) 0.5015(9)
C4 C 0.6031(9) 0.6493(8) 0.4438(9)
H10 H 0.6375 0.6606 0.3773
C5 C 0.5377(9) 0.7295(8) 0.4822(8)
C6 C 0.4898(10) 0.7123(8) 0.5816(9)
H11 H 0.4459 0.7660 0.6080
C7 C 0.4556(11) 0.6002(10) 0.7528(9)
H12 H 0.4337 0.5323 0.7794
H13 H 0.3859 0.6480 0.7668
C8 C 0.6859(11) 0.4646(9) 0.4586(9)
H14 H 0.7133 0.4894 0.3888
H15 H 0.6330 0.4159 0.4709
C9 C 0.5172(10) 0.8317(9) 0.4168(9)
H16 H 0.5836 0.8408 0.3601
H17 H 0.5107 0.8839 0.4505
U5 U 0.91318(3) 0.14502(3) 0.48711(3)
U6 U 0.66609(4) 0.42562(3) 0.94372(3)
U9 U 0.54253(4) 0.90083(3) 0.75718(3)
Zn3 Zn 0.9576(2) 0.4963(2) 0.5821(2)
O32 O 0.1333(7) 0.6807(5) 0.5554(6)
P5 P 0.7471(3) 0.1804(2) 0.0922(2)
O4 O 0.3925(10) 0.0409(9) 0.8207(9)
H3 H 0.3744 0.0719 0.8659
H4 H 0.3853 0.0552 0.7635
O15 O 0.6339(8) 0.1546(9) 0.1613(9)
O16 O 0.7881(12) 0.1195(8) 0.0142(8)
O17 O 0.7426(7) 0.2944(6) 0.0513(6)
C12 C 0.8541(11) 0.0338(9) 0.2174(9)
C13 C 0.7967(10) 0.0123(8) 0.3166(9)
H19 H 0.7579 0.0658 0.3452
C17 C 0.8542(13) 0.1430(10) 0.1586(11)
H23 H 0.9305 0.1512 0.1134
H24 H 0.8395 0.1875 0.2019
O28 O 0.4979(7) 0.4241(6) 0.0785(6)
O33 O 0.6132(7) 0.0565(6) 0.7012(6)
H8 H 0.8116 0.1575 0.9610
O23 O 0.7257(8) 0.5097(6) 0.9806(6)
O24 O 0.6029(7) 0.3437(7) 0.9091(6)
O35 O 0.8523(7) 0.3790(7) 0.8509(6)
P6 P 0.8163(2) 0.8800(2) 0.5625(2)
O18 O 0.7350(7) 0.8727(6) 0.6634(6)
O19 O 0.8927(6) 0.9673(5) 0.5306(6)
O20 O 0.9060(7) 0.7852(5) 0.5575(6)
O25 O 0.5920(8) 0.8830(7) 0.8615(6)
O26 O 0.4962(7) 0.9236(6) 0.6513(6)
C10 C 0.9075(11) 0.8512(10) 0.2332(10)
C11 C 0.9094(12) 0.9518(10) 0.1768(10)
H18 H 0.9485 0.9635 0.1112
C14 C 0.7958(10) 0.9135(9) 0.3742(9)
C15 C 0.8483(10) 0.8328(9) 0.3319(9)
H20 H 0.8442 0.7665 0.3689
C16 C 0.9643(13) 0.7655(11) 0.1799(11)
H21 H 0.9851 0.7950 0.1106
H22 H 0.9076 0.7198 0.1936
C18 C 0.7320(9) 0.8963(9) 0.4799(8)
H25 H 0.6932 0.8364 0.4976
H26 H 0.6721 0.9535 0.4889
O36 O 0.3661(8) 0.8454(9) 0.8387(9)
P6_2 P 0.1837(2) 0.1200(2) 0.4375(2)
O18_2 O 0.2650(7) 0.1273(6) 0.3366(6)
O20_2 O 0.0940(7) 0.2148(5) 0.4425(6)
O25_2 O 0.4080(8) 0.1170(7) 0.1385(6)
O26_2 O 0.5038(7) 0.0764(6) 0.3487(6)
C10_2 C 0.0925(11) 0.1488(10) 0.7668(10)
C11_2 C 0.0906(12) 0.0482(10) 0.8232(10)
H18_2 H 0.0515 0.0365 0.8888
C14_2 C 0.2042(10) 0.0865(9) 0.6258(9)
C15_2 C 0.1517(10) 0.1672(9) 0.6681(9)
H20_2 H 0.1558 0.2335 0.6311
C16_2 C 0.0357(13) 0.2345(11) 0.8201(11)
H21_2 H 0.0149 0.2050 0.8894
H22_2 H 0.0924 0.2802 0.8064
C18_2 C 0.2680(9) 0.1037(9) 0.5201(8)
H25_2 H 0.3068 0.1636 0.5024
H26_2 H 0.3279 0.0465 0.5111
O30 O 0.4224(7) 0.2758(6) 0.2202(6)
H8_2 H 0.1884 0.8425 0.0390
O23_2 O 0.2743(8) 0.4903(6) 0.0194(6)
O24_2 O 0.3971(7) 0.6563(7) 0.0909(6)
O29 O 0.3313(7) 0.4580(6) 0.2098(6)
P5_2 P 0.2529(3) 0.8196(2) 0.9078(2)
O4_2 O 0.6075(10) 0.9591(9) 0.1793(9)
H3_2 H 0.6256 0.9281 0.1341
H4_2 H 0.6147 0.9448 0.2365
O16_2 O 0.2119(12) 0.8805(8) 0.9858(8)
O17_2 O 0.2574(7) 0.7056(6) 0.9487(6)
C12_2 C 0.1459(11) 0.9662(9) 0.7826(9)
C13_2 C 0.2033(10) 0.9877(8) 0.6834(9)
H19_2 H 0.2421 0.9342 0.6548
C17_2 C 0.1458(13) 0.8570(10) 0.8414(11)
H23_2 H 0.0695 0.8488 0.8866
H24_2 H 0.1605 0.8125 0.7981
P1_2 P 0.4443(3) 0.3842(2) 0.1890(2)
P2_2 P 0.1912(2) 0.6007(2) 0.4968(2)
P3_2 P 0.6114(2) 0.1530(2) 0.6209(2)
P4_2 P 0.9123(3) 0.3045(4) 0.7886(3)
O8_2 O 0.2375(7) 0.6488(6) 0.3899(6)
H5_2 H 0.2897 0.6815 0.3823
O10_2 O 0.7146(6) 0.1530(6) 0.5309(6)
O11_2 O 0.6026(7) 0.2443(6) 0.6645(6)
H6_2 H 0.6623 0.2712 0.6390
O12_2 O 0.8333(14) 0.2311(16) 0.7959(19)
H7_2 H 0.8153 0.1968 0.8517
O13 O 0.9551(18) 0.3583(16) 0.6838(10)
O21_2 O 0.9293(7) 0.1507(6) 0.3633(6)
O22_2 O 0.9025(7) 0.1370(6) 0.6098(6)
C1_2 C 0.4944(10) 0.3833(9) 0.3566(8)
C2_2 C 0.4304(10) 0.4616(9) 0.3968(9)
H9_2 H 0.4190 0.5255 0.3565
C3_2 C 0.3810(10) 0.4476(9) 0.4985(9)
C4_2 C 0.3969(9) 0.3507(8) 0.5562(9)
H10_2 H 0.3625 0.3394 0.6227
C5_2 C 0.4623(9) 0.2705(8) 0.5178(8)
C6_2 C 0.5102(10) 0.2877(8) 0.4184(9)
H11_2 H 0.5541 0.2340 0.3920
C7_2 C 0.5444(11) 0.3998(10) 0.2472(9)
H12_2 H 0.5663 0.4677 0.2206
H13_2 H 0.6141 0.3520 0.2332
C8_2 C 0.3141(11) 0.5354(9) 0.5414(9)
H14_2 H 0.2867 0.5106 0.6112
H15_2 H 0.3670 0.5841 0.5291
C9_2 C 0.4828(10) 0.1683(9) 0.5832(9)
H16_2 H 0.4164 0.1592 0.6399
H17_2 H 0.4893 0.1161 0.5495
O1_2 O 0.8668(10) 0.5865(9) 0.6430(9)
H1_2 H 0.8836 0.6443 0.6077
H2_2 H 0.8090 0.5720 0.6919
loop_
_geom_bond_atom_site_label_1
_geom_bond_atom_site_label_2
_geom_bond_site_symmetry_1
_geom_bond_site_symmetry_2
Zn1 O1 1_555 1_555
O1 H1 1_555 1_555
H2 O1 1_555 1_555
O31 Zn1 1_555 1_555
O34 Zn1 1_555 1_555
U1 O10 1_555 1_555
P1 O2 1_555 1_555
P2 O6 1_555 1_555
P3 O9 1_555 1_555
P4 O12 1_555 1_555
O2 U6 1_555 1_555
O3 P1 1_555 1_555
O5 P1 1_555 1_555
O7 P2 1_555 1_555
O8 P2 1_555 1_555
H5 O8 1_555 1_555
O10 P3 1_555 1_555
O11 P3 1_555 1_555
H6 O11 1_555 1_555
O12 H7 1_555 1_555
O34 P4 1_555 1_555
O14 P4 1_555 1_555
O21 U1 1_555 1_555
O22 U1 1_555 1_555
C1 C2 1_555 1_555
C2 H9 1_555 1_555
C3 C2 1_555 1_555
C4 C3 1_555 1_555
H10 C4 1_555 1_555
C5 C4 1_555 1_555
C6 C1 1_555 1_555
H11 C6 1_555 1_555
C7 P1 1_555 1_555
H12 C7 1_555 1_555
H13 C7 1_555 1_555
C8 P2 1_555 1_555
H14 C8 1_555 1_555
H15 C8 1_555 1_555
C9 P3 1_555 1_555
H16 C9 1_555 1_555
H17 C9 1_555 1_555
U5 O7 1_555 1_555
U6 O3 1_555 1_555
U8 O14 1_555 1_555
U9 O5 1_555 1_555
O32 U1 1_555 1_555
O6 Zn3 1_555 1_555
C1 C7 1_555 1_555
C3 C8 1_555 1_555
C5 C6 1_555 1_555
C5 C9 1_555 1_555
P5 O15 1_555 1_555
O4 H3 1_555 1_555
H4 O4 1_555 1_555
O15 U11 1_555 1_555
O16 P5 1_555 1_555
O17 P5 1_555 1_555
C13 C12 1_555 1_555
H19 C13 1_555 1_555
C17 P5 1_555 1_555
H23 C17 1_555 1_555
H24 C17 1_555 1_555
C12 C17 1_555 1_555
O23 U6 1_555 1_555
O24 U6 1_555 1_555
O35 U6 1_555 1_555
P6 O18 1_555 1_555
O18 U9 1_555 1_555
O25 U9 1_555 1_555
O26 U9 1_555 1_555
C10 C11 1_555 1_555
C11 H18 1_555 1_555
C15 C10 1_555 1_555
H20 C15 1_555 1_555
H21 C16 1_555 1_555
H22 C16 1_555 1_555
C18 P6 1_555 1_555
H25 C18 1_555 1_555
H26 C18 1_555 1_555
O36 U9 1_555 1_555
P6 O19 1_555 1_555
P6 O20 1_555 1_555
C10 C16 1_555 1_555
C14 C15 1_555 1_555
C14 C18 1_555 1_555
P6_2 O18_2 1_555 1_555
O18_2 U11 1_555 1_555
O25_2 U11 1_555 1_555
O26_2 U11 1_555 1_555
C10_2 C11_2 1_555 1_555
C11_2 H18_2 1_555 1_555
C15_2 C10_2 1_555 1_555
H20_2 C15_2 1_555 1_555
H21_2 C16_2 1_555 1_555
H22_2 C16_2 1_555 1_555
C18_2 P6_2 1_555 1_555
H25_2 C18_2 1_555 1_555
H26_2 C18_2 1_555 1_555
O30 U11 1_555 1_555
P6_2 O37 1_555 1_555
P6_2 O20_2 1_555 1_555
C10_2 C16_2 1_555 1_555
C14_2 C15_2 1_555 1_555
C14_2 C18_2 1_555 1_555
O23_2 U8 1_555 1_555
O24_2 U8 1_555 1_555
O28 U8 1_555 1_555
O29 U8 1_555 1_555
P5_2 O36 1_555 1_555
O4_2 H3_2 1_555 1_555
H4_2 O4_2 1_555 1_555
O16_2 P5_2 1_555 1_555
O17_2 P5_2 1_555 1_555
C13_2 C12_2 1_555 1_555
H19_2 C13_2 1_555 1_555
C17_2 P5_2 1_555 1_555
H23_2 C17_2 1_555 1_555
H24_2 C17_2 1_555 1_555
C12_2 C17_2 1_555 1_555
U5 O10_2 1_555 1_555
P1_2 O28 1_555 1_555
P2_2 O31 1_555 1_555
P3_2 O33 1_555 1_555
P4_2 O12_2 1_555 1_555
O29 P1_2 1_555 1_555
O30 P1_2 1_555 1_555
O32 P2_2 1_555 1_555
O8_2 P2_2 1_555 1_555
H5_2 O8_2 1_555 1_555
O10_2 P3_2 1_555 1_555
O11_2 P3_2 1_555 1_555
H6_2 O11_2 1_555 1_555
O12_2 H7_2 1_555 1_555
O13 P4_2 1_555 1_555
O35 P4_2 1_555 1_555
O21_2 U5 1_555 1_555
O22_2 U5 1_555 1_555
C1_2 C2_2 1_555 1_555
C2_2 H9_2 1_555 1_555
C3_2 C2_2 1_555 1_555
C4_2 C3_2 1_555 1_555
H10_2 C4_2 1_555 1_555
C5_2 C4_2 1_555 1_555
C6_2 C1_2 1_555 1_555
H11_2 C6_2 1_555 1_555
C7_2 P1_2 1_555 1_555
H12_2 C7_2 1_555 1_555
H13_2 C7_2 1_555 1_555
C8_2 P2_2 1_555 1_555
H14_2 C8_2 1_555 1_555
H15_2 C8_2 1_555 1_555
C9_2 P3_2 1_555 1_555
H16_2 C9_2 1_555 1_555
H17_2 C9_2 1_555 1_555
Zn3 O13 1_555 1_555
C1_2 C7_2 1_555 1_555
C3_2 C8_2 1_555 1_555
C5_2 C6_2 1_555 1_555
C5_2 C9_2 1_555 1_555
Zn3 O1_2 1_555 1_555
O1_2 H1_2 1_555 1_555
H2_2 O1_2 1_555 1_555

#END
