
###############################################################################
#
# This file contains modified crystal structure data generated from the
# MOF subset of the Cambridge Structural Database (CSD) v543 
# hosted by the Cambridge Crystallographic Data Centre (CCDC).
#
# This work is licensed under the Creative Commons
# Attribution-NonCommercial-ShareAlike 4.0 International License.
# To view a copy of this license, visit
# http://creativecommons.org/licenses/by-nc-sa/4.0/
# or send a letter to
# Creative Commons, PO Box 1866, Mountain View, CA 94042, USA.
#
# CIF created using the CSD Python API on 29 September 2022
# The structure has been converted into the P1 space group
# The structure has a 3D framework
# The original CSD entry ZIYSEI is in the triclinic crystal system
# The framework has been calculated to contain at least 10.0% void space
# The void calculation uses a probe of radius 1.32A, grid spacing 0.4
# The framework is charged, counterions have been retained in the structure
# H atom positions have been added when not included in the experimental data
# Generated hydrogen atom positions removed from atoms on special positions
#
###############################################################################

data_ZIYSEI
_chemical_formula_moiety         '(C116 H138 Cu12 N12 O56 S8 16+)n'
_symmetry_cell_setting           triclinic
_symmetry_space_group_name_H-M   'P 1'
_symmetry_Int_Tables_number      1
_space_group_name_Hall           'P 1'
loop_
_symmetry_equiv_pos_site_id
_symmetry_equiv_pos_as_xyz
1 x,y,z
_cell_length_a                   16.6154(11)
_cell_length_b                   16.7410(11)
_cell_length_c                   16.8408(11)
_cell_angle_alpha                91.8430(10)
_cell_angle_beta                 105.2040(10)
_cell_angle_gamma                117.9880(10)
_cell_volume                     3924.97
loop_
_atom_site_label
_atom_site_type_symbol
_atom_site_fract_x
_atom_site_fract_y
_atom_site_fract_z
C1 C 0.2140(3) 0.0502(3) 0.1712(3)
H1 H 0.1709 0.0544 0.1945
C2 C 0.2640(3) 0.0088(3) 0.2082(3)
C3 C 0.3290(3) 0.0012(3) 0.1743(3)
C4 C 0.3433(3) 0.0413(3) 0.1044(3)
H3 H 0.3881 0.0401 0.0816
C5 C 0.2911(3) 0.0832(3) 0.0685(3)
H4 H 0.3010 0.1098 0.0218
N2 N 0.2259(3) 0.0852(2) 0.1013(2)
O2 O 0.1710(2) 0.1187(2) 0.0633(2)
Cu2 Cu 0.0000 0.5000 0.5000
Cu3 Cu 0.0000 0.0000 0.0000
C24 C 0.0355(3) 0.4293(3) 0.2294(3)
H19 H 0.0848 0.4516 0.2056
C25 C 0.0361(3) 0.4874(3) 0.2886(3)
H20 H 0.0849 0.5485 0.3046
C29 C 0.0513(3) 0.2754(3) 0.1472(3)
H23 H 0.1079 0.3170 0.1885
C30 C 0.0517(3) 0.2145(3) 0.0911(3)
H24 H 0.1085 0.2143 0.0949
O23 O 0.1383(2) 0.5572(2) 0.50768(19)
O24 O 0.0215(2) 0.6479(2) 0.52299(19)
O27 O 0.0350(2) 0.4869(2) 0.61930(18)
H87 H 0.00272202 0.0659443 0.13533
H91 H 0.0222277 0.351986 0.446622
H104 H 0.0422865 0.670413 0.584073
Cu1 Cu 0.64153(4) 0.83326(4) 0.30359(4)
H2 H 0.2548 0.9853 0.2563
C6 C 0.4419(3) 0.8935(3) 0.3240(3)
H5 H 0.4526 0.8871 0.3799
C7 C 0.3950(3) 0.9397(3) 0.2930(3)
H6 H 0.3733 0.9638 0.3275
C8 C 0.3796(3) 0.9509(3) 0.2102(3)
C9 C 0.4117(3) 0.9110(3) 0.1607(3)
H7 H 0.4019 0.9164 0.1047
C10 C 0.4571(3) 0.8647(3) 0.1939(3)
H8 H 0.4775 0.8381 0.1601
C11 C 0.5311(3) 0.6656(3) 0.4122(3)
H9 H 0.5192 0.7146 0.4095
C12 C 0.5012(3) 0.6074(3) 0.4660(3)
H10 H 0.4695 0.6177 0.4997
C13 C 0.5169(3) 0.5326(3) 0.4716(3)
C14 C 0.5665(3) 0.5223(3) 0.4209(3)
H11 H 0.5794 0.4739 0.4229
C15 C 0.5968(3) 0.5825(3) 0.3679(3)
H12 H 0.6306 0.5749 0.3350
C16 C 0.4956(4) 0.6769(4) 0.0456(3)
H13 H 0.4616 0.7076 0.0282
C18 C 0.5149(3) 0.5455(3) 0.0237(3)
C19 C 0.5942(4) 0.5876(3) 0.0957(3)
H15 H 0.6298 0.5587 0.1141
C20 C 0.6209(4) 0.6713(3) 0.1402(3)
H16 H 0.6738 0.6978 0.1885
N1 N 0.4729(3) 0.8568(2) 0.2748(2)
N3 N 0.5713(3) 0.7149(2) 0.1146(2)
N4 N 0.5778(3) 0.6530(3) 0.3631(2)
O1 O 0.5164(2) 0.8099(2) 0.3080(2)
O3 O 0.5965(3) 0.7952(2) 0.1574(2)
O4 O 0.6017(3) 0.7028(2) 0.3055(2)
O5 O 0.7705(3) 0.8523(3) 0.3121(2)
O6 O 0.6843(2) 0.9613(2) 0.2808(2)
O7 O 0.6922(3) 0.8817(3) 0.4523(2)
Cu3_2 Cu 0.0000 1.0000 0.0000
C31 C 0.4689(3) 0.3344(3) 0.5878(3)
H25 H 0.4808 0.2854 0.5905
C32 C 0.4988(3) 0.3926(3) 0.5340(3)
H26 H 0.5305 0.3823 0.5003
C33 C 0.4831(3) 0.4674(3) 0.5284(3)
C34 C 0.4335(3) 0.4777(3) 0.5791(3)
H27 H 0.4206 0.5261 0.5771
C35 C 0.4032(3) 0.4175(3) 0.6321(3)
H28 H 0.3694 0.4251 0.6650
N7 N 0.4222(3) 0.3470(3) 0.6369(2)
O13 O 0.3983(3) 0.2972(2) 0.6945(2)
C37 C 0.5336(4) 0.4063(4) 0.0004(3)
H30 H 0.5866 0.4309 0.0485
H45 H 0.1675 0.8858 0.0199
O21 O 0.0284(2) 0.9019(2) 0.02698(19)
Cu6 Cu 0.35847(4) 0.16674(4) 0.69641(4)
C17 C 0.4664(4) 0.5937(4) 0.9996(3)
H14 H 0.4134 0.5691 0.9515
Cu3_3 Cu 0.0000 1.0000 1.0000
C36 C 0.5044(4) 0.3231(4) 0.9544(3)
H29 H 0.5384 0.2924 0.9718
C38 C 0.4851(3) 0.4545(3) 0.9763(3)
C39 C 0.4058(4) 0.4124(3) 0.9043(3)
H31 H 0.3702 0.4413 0.8859
C40 C 0.3791(4) 0.3287(3) 0.8598(3)
H32 H 0.3262 0.3022 0.8115
N8 N 0.4287(3) 0.2851(2) 0.8854(2)
O14 O 0.4035(3) 0.2048(2) 0.8426(2)
C51 C 0.1075(3) 0.6321(3) 0.7004(3)
H41 H 0.1564 0.6525 0.6761
C52 C 0.1100(3) 0.6921(3) 0.7612(3)
H42 H 0.1608 0.7522 0.7783
C53 C 0.0361(3) 0.6615(3) 0.7961(3)
C56 C 0.1123(3) 0.8457(3) 0.9765(3)
C57 C 0.1160(3) 0.7878(3) 0.9204(3)
H46 H 0.1742 0.7907 0.9245
C58 C 0.0337(3) 0.7247(3) 0.8575(3)
N11 N 0.0351(3) 0.5451(2) 0.6766(2)
N12 N 0.0300(3) 0.8452(2) 0.9697(2)
O22 O 0.0133(2) 0.9970(2) 0.88750(19)
H99 H 0.0621585 0.978903 0.886872
Cu2_2 Cu 1.0000 0.5000 0.5000
Cu3_4 Cu 1.0000 0.0000 0.0000
C21 C 0.8925(3) 0.3679(3) 0.2996(3)
H17 H 0.8436 0.3475 0.3239
C22 C 0.8900(3) 0.3079(3) 0.2388(3)
H18 H 0.8392 0.2478 0.2217
C23 C 0.9639(3) 0.3385(3) 0.2039(3)
C26 C 0.8877(3) 0.1543(3) 0.0235(3)
C27 C 0.8840(3) 0.2122(3) 0.0796(3)
H22 H 0.8258 0.2093 0.0755
C28 C 0.9663(3) 0.2753(3) 0.1425(3)
N5 N 0.9649(3) 0.4549(2) 0.3234(2)
N6 N 0.9700(3) 0.1548(2) 0.0303(2)
O8 O 0.9650(2) 0.5131(2) 0.38070(18)
O10 O 0.8617(2) 0.4428(2) 0.49232(19)
O11 O 0.9785(2) 0.3521(2) 0.47701(19)
O12 O 0.9867(2) 0.0030(2) 0.11250(19)
H92 H 0.993186 0.332648 0.531569
H103 H 0.960036 0.646484 0.495557
Cu3_5 Cu 1.0000 0.0000 1.0000
H21 H 0.8325 0.1142 0.9801
O9 O 0.9716(2) 0.0981(2) 0.97302(19)
H34 H 0.7452 0.0147 0.7437
C46 C 0.5581(3) 0.1065(3) 0.6760(3)
H37 H 0.5474 0.1129 0.6201
C47 C 0.6050(3) 0.0603(3) 0.7070(3)
H38 H 0.6267 0.0362 0.6725
C48 C 0.6204(3) 0.0491(3) 0.7898(3)
C49 C 0.5883(3) 0.0890(3) 0.8393(3)
H39 H 0.5981 0.0836 0.8953
C50 C 0.5429(3) 0.1353(3) 0.8061(3)
H40 H 0.5225 0.1619 0.8399
N9 N 0.5271(3) 0.1432(2) 0.7252(2)
O15 O 0.4836(2) 0.1901(2) 0.6920(2)
O17 O 0.2295(3) 0.1477(3) 0.6879(2)
O18 O 0.3157(2) 0.0387(2) 0.7192(2)
O19 O 0.3078(3) 0.1183(3) 0.5477(2)
Cu3_6 Cu 1.0000 1.0000 1.0000
C41 C 0.7860(3) 0.9498(3) 0.8288(3)
H33 H 0.8291 0.9456 0.8055
C42 C 0.7360(3) 0.9912(3) 0.7918(3)
C43 C 0.6710(3) 0.9988(3) 0.8257(3)
C44 C 0.6567(3) 0.9587(3) 0.8956(3)
H35 H 0.6119 0.9599 0.9184
C45 C 0.7089(3) 0.9168(3) 0.9315(3)
H36 H 0.6990 0.8902 0.9782
N10 N 0.7741(3) 0.9148(2) 0.8987(2)
O16 O 0.8290(2) 0.8813(2) 0.9367(2)
C54 C 0.9645(3) 0.5707(3) 0.7706(3)
H43 H 0.9152 0.5484 0.7944
C55 C 0.9639(3) 0.5126(3) 0.7114(3)
H44 H 0.9151 0.4515 0.6954
C59 C 0.9487(3) 0.7246(3) 0.8528(3)
H47 H 0.8921 0.6830 0.8115
C60 C 0.9483(3) 0.7855(3) 0.9089(3)
H48 H 0.8915 0.7857 0.9051
H100 H 0.950659 0.951647 0.846356
H100_2 H 0.0493411 0.0483529 0.153644
H92_2 H 0.0068138 0.667352 0.468431
H103_2 H 0.0399641 0.353516 0.504443
H99_2 H 0.937842 0.0210965 0.113128
H87_2 H 0.997278 0.934056 0.86467
H91_2 H 0.977772 0.648014 0.553378
H104_2 H 0.957714 0.329587 0.415927
Cu3_7 Cu 0.0000 0.0000 1.0000
H88 H 0.0804198 0.0413427 0.89076
Cu3_8 Cu 1.0000 1.0000 0.0000
H88_2 H 0.91958 0.958657 0.10924
S1 S 0.07471(8) 0.70570(7) 0.16146(7)
S2 S 0.18999(8) 0.37400(8) 0.43344(7)
S3 S 0.52975(8) 0.18762(8) 0.44961(7)
S4 S 0.59418(8) 0.14446(7) 0.06975(7)
C61 C 0.1577(3) 0.5673(3) 0.0306(3)
C62 C 0.1102(3) 0.6107(3) 0.0528(3)
H49 H 0.0601 0.6111 0.0124
C63 C 0.1372(3) 0.6524(3) 0.1338(3)
C64 C 0.2113(3) 0.6526(3) 0.1952(3)
H50 H 0.2298 0.6824 0.2497
C65 C 0.2586(3) 0.6078(3) 0.1752(3)
C66 C 0.2300(3) 0.5654(3) 0.0929(3)
C67 C 0.3399(3) 0.6071(3) 0.2426(3)
H51 H 0.3593 0.6521 0.2914
H52 H 0.3945 0.6264 0.2222
C68 C 0.3151(3) 0.5138(3) 0.2695(3)
C69 C 0.2717(3) 0.4888(3) 0.3305(3)
H53 H 0.2550 0.5280 0.3534
C70 C 0.2519(3) 0.4067(3) 0.3591(3)
C71 C 0.2756(3) 0.3470(3) 0.3242(3)
H54 H 0.2616 0.2915 0.3424
C72 C 0.3199(3) 0.3702(3) 0.2625(3)
C73 C 0.3407(3) 0.4539(3) 0.2364(3)
C74 C 0.3427(3) 0.3029(3) 0.2243(3)
H55 H 0.2917 0.2409 0.2203
H56 H 0.3428 0.3125 0.1678
C75 C 0.4377(3) 0.3099(3) 0.2717(3)
C76 C 0.4400(3) 0.2531(3) 0.3302(3)
H57 H 0.3834 0.2114 0.3396
C77 C 0.5265(3) 0.2585(3) 0.3746(3)
C78 C 0.6119(3) 0.3205(3) 0.3611(3)
H58 H 0.6694 0.3243 0.3915
C79 C 0.6110(3) 0.3770(3) 0.3016(3)
C80 C 0.5238(3) 0.3710(3) 0.2581(3)
C81 C 0.7017(3) 0.4396(3) 0.2827(3)
H59 H 0.7565 0.4540 0.3309
H60 H 0.7026 0.4967 0.2727
C82 C 0.7107(3) 0.3966(3) 0.2066(2)
C83 C 0.6547(3) 0.3033(3) 0.1748(3)
H61 H 0.6087 0.2662 0.1987
C84 C 0.6662(3) 0.2643(3) 0.1075(3)
C85 C 0.7317(3) 0.3188(3) 0.0692(3)
H62 H 0.7362 0.2924 0.0223
C86 C 0.7910(3) 0.4128(3) 0.0997(3)
C87 C 0.7807(3) 0.4511(3) 0.1699(3)
O28 O 0.0126(2) 0.7069(2) 0.0831(2)
O29 O 0.1470(2) 0.7971(2) 0.2082(2)
O30 O 0.0210(2) 0.6483(2) 0.21306(19)
O31 O 0.0882(2) 0.3357(2) 0.3863(2)
O32 O 0.2257(2) 0.4566(2) 0.49301(19)
O33 O 0.2096(2) 0.3054(2) 0.4707(2)
O34 O 0.4314(2) 0.1281(2) 0.4480(2)
O35 O 0.5891(2) 0.2492(2) 0.53010(19)
O36 O 0.5725(3) 0.1367(2) 0.4245(2)
O37 O 0.5623(2) 0.1037(2) 0.13816(19)
O38 O 0.6570(2) 0.1155(2) 0.0468(2)
O40 O 0.2801(2) 0.5250(2) 0.07330(19)
O41 O 0.3888(2) 0.4764(2) 0.17827(19)
O42 O 0.5274(2) 0.4269(2) 0.19984(19)
O43 O 0.8371(2) 0.54220(19) 0.20607(18)
C116 C 0.8670(3) 0.4725(3) 0.0609(3)
H79 H 0.8738 0.5334 0.0645
H80 H 0.9282 0.4788 0.0925
O55 O 0.4838(2) 0.8678(2) 0.00185(19)
H105 H 0.503267 0.467963 0.213769
H106 H 0.312592 0.557074 0.0329247
H107 H 0.451248 0.533981 0.202455
H108 H 0.872515 0.547965 0.265401
H109 H 0.486781 0.388558 0.143502
H110 H 0.349587 0.48564 0.127687
H111 H 0.234785 0.459184 0.047893
H112 H 0.796061 0.570709 0.203535
C88 C 0.1330(3) 0.5275(3) 0.9391(3)
H63 H 0.1262 0.4666 0.9355
H64 H 0.0718 0.5212 0.9075
O39 O 0.5162(2) 0.1322(2) 0.99815(19)
S5 S 0.92529(8) 0.29430(7) 0.83854(7)
S6 S 0.81001(8) 0.62600(8) 0.56656(7)
S7 S 0.47025(8) 0.81238(8) 0.55039(7)
S8 S 0.40582(8) 0.85554(7) 0.93025(7)
C89 C 0.8423(3) 0.4327(3) 0.9694(3)
C90 C 0.8898(3) 0.3893(3) 0.9472(3)
H65 H 0.9399 0.3889 0.9876
C91 C 0.8628(3) 0.3476(3) 0.8662(3)
C92 C 0.7887(3) 0.3474(3) 0.8048(3)
H66 H 0.7702 0.3176 0.7503
C93 C 0.7414(3) 0.3922(3) 0.8248(3)
C94 C 0.7700(3) 0.4346(3) 0.9071(3)
C95 C 0.6601(3) 0.3929(3) 0.7574(3)
H67 H 0.6407 0.3479 0.7086
H68 H 0.6055 0.3736 0.7778
C96 C 0.6849(3) 0.4862(3) 0.7305(3)
C97 C 0.7283(3) 0.5112(3) 0.6695(3)
H69 H 0.7450 0.4720 0.6466
C98 C 0.7481(3) 0.5933(3) 0.6409(3)
C99 C 0.7244(3) 0.6530(3) 0.6758(3)
H70 H 0.7384 0.7085 0.6576
C100 C 0.6801(3) 0.6298(3) 0.7375(3)
C101 C 0.6593(3) 0.5461(3) 0.7636(3)
C102 C 0.6573(3) 0.6971(3) 0.7757(3)
H71 H 0.7083 0.7591 0.7797
H72 H 0.6572 0.6875 0.8322
C103 C 0.5623(3) 0.6901(3) 0.7283(3)
C104 C 0.5600(3) 0.7469(3) 0.6698(3)
H73 H 0.6166 0.7886 0.6604
C105 C 0.4735(3) 0.7415(3) 0.6254(3)
C106 C 0.3881(3) 0.6795(3) 0.6389(3)
H74 H 0.3306 0.6757 0.6085
C107 C 0.3890(3) 0.6230(3) 0.6984(3)
C108 C 0.4762(3) 0.6290(3) 0.7419(3)
C109 C 0.2983(3) 0.5604(3) 0.7173(3)
H75 H 0.2435 0.5460 0.6691
H76 H 0.2974 0.5033 0.7273
C110 C 0.2893(3) 0.6034(3) 0.7934(2)
C111 C 0.3453(3) 0.6967(3) 0.8252(3)
H77 H 0.3913 0.7338 0.8013
C112 C 0.3338(3) 0.7357(3) 0.8925(3)
C113 C 0.2683(3) 0.6812(3) 0.9308(3)
H78 H 0.2638 0.7076 0.9777
C114 C 0.2090(3) 0.5872(3) 0.9003(3)
C115 C 0.2193(3) 0.5489(3) 0.8301(3)
O44 O 0.9874(2) 0.2931(2) 0.9169(2)
O45 O 0.8530(2) 0.2029(2) 0.7918(2)
O46 O 0.9790(2) 0.3517(2) 0.78694(19)
O47 O 0.9118(2) 0.6643(2) 0.6137(2)
O48 O 0.7743(2) 0.5434(2) 0.50699(19)
O49 O 0.7904(2) 0.6946(2) 0.5293(2)
O50 O 0.5686(2) 0.8719(2) 0.5520(2)
O51 O 0.4109(2) 0.7508(2) 0.46990(19)
O52 O 0.4275(3) 0.8633(2) 0.5755(2)
O53 O 0.4377(2) 0.8963(2) 0.86184(19)
O54 O 0.3430(2) 0.8845(2) 0.9532(2)
O56 O 0.7199(2) 0.4750(2) 0.92670(19)
O57 O 0.6112(2) 0.5236(2) 0.82173(19)
O58 O 0.4726(2) 0.5731(2) 0.80016(19)
O59 O 0.1629(2) 0.45780(19) 0.79393(18)
H109_2 H 0.513219 0.611442 0.856498
H110_2 H 0.650413 0.51436 0.872313
H111_2 H 0.765215 0.540816 0.952107
H112_2 H 0.203939 0.429291 0.796465
H105_2 H 0.496733 0.532037 0.786231
H106_2 H 0.687408 0.442926 0.967075
H107_2 H 0.548752 0.466019 0.797545
H108_2 H 0.127485 0.452035 0.734599
loop_
_geom_bond_atom_site_label_1
_geom_bond_atom_site_label_2
_geom_bond_site_symmetry_1
_geom_bond_site_symmetry_2
C1 H1 1_555 1_555
C2 C1 1_555 1_555
C3 C2 1_555 1_555
C4 C3 1_555 1_555
H3 C4 1_555 1_555
C5 C4 1_555 1_555
H4 C5 1_555 1_555
N2 C1 1_555 1_555
O2 N2 1_555 1_555
Cu3 O2 1_555 1_555
H19 C24 1_555 1_555
C25 C24 1_555 1_555
H20 C25 1_555 1_555
H23 C29 1_555 1_555
C30 C29 1_555 1_555
H24 C30 1_555 1_555
O23 Cu2 1_555 1_555
O24 Cu2 1_555 1_555
O27 Cu2 1_555 1_555
C5 N2 1_555 1_555
O24 H104 1_555 1_555
Cu1 O1 1_555 1_555
C6 H5 1_555 1_555
C7 C6 1_555 1_555
H6 C7 1_555 1_555
C9 C8 1_555 1_555
H7 C9 1_555 1_555
C10 C9 1_555 1_555
H8 C10 1_555 1_555
C11 H9 1_555 1_555
C12 C11 1_555 1_555
H10 C12 1_555 1_555
C13 C12 1_555 1_555
C14 C13 1_555 1_555
H11 C14 1_555 1_555
C15 C14 1_555 1_555
H12 C15 1_555 1_555
C16 H13 1_555 1_555
C19 C18 1_555 1_555
H15 C19 1_555 1_555
C20 C19 1_555 1_555
H16 C20 1_555 1_555
N1 C6 1_555 1_555
N3 C16 1_555 1_555
N4 C11 1_555 1_555
O1 N1 1_555 1_555
O3 Cu1 1_555 1_555
O4 Cu1 1_555 1_555
O5 Cu1 1_555 1_555
O6 Cu1 1_555 1_555
O7 Cu1 1_555 1_555
C31 H25 1_555 1_555
C32 C31 1_555 1_555
H26 C32 1_555 1_555
C33 C13 1_555 1_555
C34 C33 1_555 1_555
H27 C34 1_555 1_555
C35 C34 1_555 1_555
H28 C35 1_555 1_555
N7 C31 1_555 1_555
O13 N7 1_555 1_555
H30 C37 1_555 1_555
O21 Cu3_2 1_555 1_555
Cu6 O13 1_555 1_555
C7 C8 1_555 1_555
C10 N1 1_555 1_555
C15 N4 1_555 1_555
C20 N3 1_555 1_555
N3 O3 1_555 1_555
N4 O4 1_555 1_555
C32 C33 1_555 1_555
C35 N7 1_555 1_555
H14 C17 1_555 1_555
C36 H29 1_555 1_555
C39 C38 1_555 1_555
H31 C39 1_555 1_555
C40 C39 1_555 1_555
H32 C40 1_555 1_555
N8 C36 1_555 1_555
O14 N8 1_555 1_555
C51 H41 1_555 1_555
C52 C51 1_555 1_555
H42 C52 1_555 1_555
C53 C52 1_555 1_555
C57 C56 1_555 1_555
H46 C57 1_555 1_555
C58 C53 1_555 1_555
N11 C51 1_555 1_555
N12 C56 1_555 1_555
O27 N11 1_555 1_555
O22 Cu3_3 1_555 1_555
Cu6 O14 1_555 1_555
C40 N8 1_555 1_555
C57 C58 1_555 1_555
O22 H99 1_555 1_555
Cu2_2 O8 1_555 1_555
C21 H17 1_555 1_555
C22 C21 1_555 1_555
H18 C22 1_555 1_555
C23 C22 1_555 1_555
C27 C26 1_555 1_555
H22 C27 1_555 1_555
C28 C23 1_555 1_555
N5 C21 1_555 1_555
N6 C26 1_555 1_555
O8 N5 1_555 1_555
O10 Cu2_2 1_555 1_555
O11 Cu2_2 1_555 1_555
O12 Cu3_4 1_555 1_555
C27 C28 1_555 1_555
O11 H92 1_555 1_555
O9 Cu3_5 1_555 1_555
Cu6 O15 1_555 1_555
C46 H37 1_555 1_555
C47 C46 1_555 1_555
H38 C47 1_555 1_555
C49 C48 1_555 1_555
H39 C49 1_555 1_555
C50 C49 1_555 1_555
H40 C50 1_555 1_555
N9 C46 1_555 1_555
O15 N9 1_555 1_555
O17 Cu6 1_555 1_555
O18 Cu6 1_555 1_555
O19 Cu6 1_555 1_555
C47 C48 1_555 1_555
C50 N9 1_555 1_555
C41 H33 1_555 1_555
C42 C41 1_555 1_555
C43 C42 1_555 1_555
C44 C43 1_555 1_555
H35 C44 1_555 1_555
C45 C44 1_555 1_555
H36 C45 1_555 1_555
N10 C41 1_555 1_555
O16 Cu3_6 1_555 1_555
H43 C54 1_555 1_555
C55 C54 1_555 1_555
H44 C55 1_555 1_555
H47 C59 1_555 1_555
C60 C59 1_555 1_555
H48 C60 1_555 1_555
C45 N10 1_555 1_555
N10 O16 1_555 1_555
O24 H92_2 1_555 1_555
O12 H99_2 1_555 1_555
O11 H104_2 1_555 1_555
S1 C63 1_555 1_555
S2 C70 1_555 1_555
S3 C77 1_555 1_555
S4 C84 1_555 1_555
C61 C62 1_555 1_555
C62 H49 1_555 1_555
C63 C62 1_555 1_555
C64 C63 1_555 1_555
H50 C64 1_555 1_555
C65 C64 1_555 1_555
C66 C61 1_555 1_555
C67 C65 1_555 1_555
H51 C67 1_555 1_555
H52 C67 1_555 1_555
C68 C67 1_555 1_555
C69 C68 1_555 1_555
H53 C69 1_555 1_555
C70 C69 1_555 1_555
C71 C70 1_555 1_555
H54 C71 1_555 1_555
C72 C71 1_555 1_555
C73 C68 1_555 1_555
C74 C72 1_555 1_555
H55 C74 1_555 1_555
H56 C74 1_555 1_555
C75 C74 1_555 1_555
C76 C75 1_555 1_555
H57 C76 1_555 1_555
C77 C76 1_555 1_555
C78 C77 1_555 1_555
H58 C78 1_555 1_555
C79 C78 1_555 1_555
C80 C75 1_555 1_555
C81 C79 1_555 1_555
H59 C81 1_555 1_555
H60 C81 1_555 1_555
C82 C81 1_555 1_555
C83 C82 1_555 1_555
H61 C83 1_555 1_555
C84 C83 1_555 1_555
C85 C84 1_555 1_555
H62 C85 1_555 1_555
C86 C85 1_555 1_555
C87 C82 1_555 1_555
O28 S1 1_555 1_555
O29 S1 1_555 1_555
O30 S1 1_555 1_555
O31 S2 1_555 1_555
O32 S2 1_555 1_555
O33 S2 1_555 1_555
O34 S3 1_555 1_555
O35 S3 1_555 1_555
O36 S3 1_555 1_555
O37 S4 1_555 1_555
O38 S4 1_555 1_555
O40 C66 1_555 1_555
O41 C73 1_555 1_555
O42 C80 1_555 1_555
O43 C87 1_555 1_555
C116 C86 1_555 1_555
H79 C116 1_555 1_555
H80 C116 1_555 1_555
C65 C66 1_555 1_555
C72 C73 1_555 1_555
C79 C80 1_555 1_555
C86 C87 1_555 1_555
O42 H105 1_555 1_555
O40 H106 1_555 1_555
O41 H107 1_555 1_555
O43 H108 1_555 1_555
O42 H109 1_555 1_555
O41 H110 1_555 1_555
O40 H111 1_555 1_555
O43 H112 1_555 1_555
H63 C88 1_555 1_555
H64 C88 1_555 1_555
S5 C91 1_555 1_555
S6 C98 1_555 1_555
S7 C105 1_555 1_555
S8 C112 1_555 1_555
C89 C90 1_555 1_555
C90 H65 1_555 1_555
C91 C90 1_555 1_555
C92 C91 1_555 1_555
H66 C92 1_555 1_555
C93 C92 1_555 1_555
C94 C89 1_555 1_555
C95 C93 1_555 1_555
H67 C95 1_555 1_555
H68 C95 1_555 1_555
C96 C95 1_555 1_555
C97 C96 1_555 1_555
H69 C97 1_555 1_555
C98 C97 1_555 1_555
C99 C98 1_555 1_555
H70 C99 1_555 1_555
C100 C99 1_555 1_555
C101 C96 1_555 1_555
C102 C100 1_555 1_555
H71 C102 1_555 1_555
H72 C102 1_555 1_555
C103 C102 1_555 1_555
C104 C103 1_555 1_555
H73 C104 1_555 1_555
C105 C104 1_555 1_555
C106 C105 1_555 1_555
H74 C106 1_555 1_555
C107 C106 1_555 1_555
C108 C103 1_555 1_555
C109 C107 1_555 1_555
H75 C109 1_555 1_555
H76 C109 1_555 1_555
C110 C109 1_555 1_555
C111 C110 1_555 1_555
H77 C111 1_555 1_555
C112 C111 1_555 1_555
C113 C112 1_555 1_555
H78 C113 1_555 1_555
C114 C88 1_555 1_555
C115 C110 1_555 1_555
O44 S5 1_555 1_555
O45 S5 1_555 1_555
O46 S5 1_555 1_555
O47 S6 1_555 1_555
O48 S6 1_555 1_555
O49 S6 1_555 1_555
O50 S7 1_555 1_555
O51 S7 1_555 1_555
O52 S7 1_555 1_555
O53 S8 1_555 1_555
O54 S8 1_555 1_555
O56 C94 1_555 1_555
O57 C101 1_555 1_555
O58 C108 1_555 1_555
O59 C115 1_555 1_555
C93 C94 1_555 1_555
C100 C101 1_555 1_555
C107 C108 1_555 1_555
C113 C114 1_555 1_555
C114 C115 1_555 1_555
O58 H109_2 1_555 1_555
O57 H110_2 1_555 1_555
O56 H111_2 1_555 1_555
O59 H112_2 1_555 1_555
O58 H105_2 1_555 1_555
O56 H106_2 1_555 1_555
O57 H107_2 1_555 1_555
O59 H108_2 1_555 1_555

#END
