
###############################################################################
#
# This file contains modified crystal structure data generated from the
# MOF subset of the Cambridge Structural Database (CSD) v543 
# hosted by the Cambridge Crystallographic Data Centre (CCDC).
#
# This work is licensed under the Creative Commons
# Attribution-NonCommercial-ShareAlike 4.0 International License.
# To view a copy of this license, visit
# http://creativecommons.org/licenses/by-nc-sa/4.0/
# or send a letter to
# Creative Commons, PO Box 1866, Mountain View, CA 94042, USA.
#
# CIF created using the CSD Python API on 29 September 2022
# The structure has been converted into the P1 space group
# The structure has a 3D framework
# The original CSD entry ZIZTOT is in the triclinic crystal system
# The framework has been calculated to contain at least 10.0% void space
# The void calculation uses a probe of radius 1.32A, grid spacing 0.4
#
###############################################################################

data_ZIZTOT
_chemical_formula_moiety         '(C18 H28 O26 P6 U3)n'
_symmetry_cell_setting           triclinic
_symmetry_space_group_name_H-M   'P 1'
_symmetry_Int_Tables_number      1
_space_group_name_Hall           'P 1'
loop_
_symmetry_equiv_pos_site_id
_symmetry_equiv_pos_as_xyz
1 x,y,z
_cell_length_a                   8.7982(3)
_cell_length_b                   11.8876(4)
_cell_length_c                   12.6446(4)
_cell_angle_alpha                95.219(2)
_cell_angle_beta                 106.752(2)
_cell_angle_gamma                96.980(2)
_cell_volume                     1245.89
loop_
_atom_site_label
_atom_site_type_symbol
_atom_site_fract_x
_atom_site_fract_y
_atom_site_fract_z
_atom_site_U_iso_or_equiv
_atom_site_thermal_displace_type
H8 H 0.2253 0.2929 0.0256 0.0220 Uiso
U8 U 0.15561(2) 0.094400(13) 0.246091(13) 0.0121 Uani
U1 U 0.5000 0.5000 0.5000 0.0111 Uani
C1 C 0.1205(5) 0.2793(4) 0.6569(3) 0.0138 Uani
C2 C 0.0910(5) 0.3915(4) 0.6589(3) 0.0153 Uani
H1 H 0.0701 0.4255 0.5921 0.0180 Uiso
C3 C 0.0914(5) 0.4548(4) 0.7573(3) 0.0131 Uani
C4 C 0.1225(5) 0.4048(4) 0.8552(3) 0.0154 Uani
H2 H 0.1238 0.4476 0.9227 0.0180 Uiso
C5 C 0.1520(6) 0.2919(4) 0.8546(4) 0.0169 Uani
C6 C 0.1499(5) 0.2295(4) 0.7556(3) 0.0161 Uani
H3 H 0.1685 0.1525 0.7549 0.0190 Uiso
C7 C 0.1242(5) 0.2123(4) 0.5505(3) 0.0164 Uani
H4 H 0.0584 0.2440 0.4859 0.0190 Uiso
H5 H 0.0761 0.1317 0.5467 0.0190 Uiso
C8 C 0.0550(5) 0.5754(4) 0.7577(4) 0.0156 Uani
H6 H 0.0924 0.6106 0.6998 0.0190 Uiso
H7 H 0.1170 0.6198 0.8307 0.0190 Uiso
C9 C 0.1723(6) 0.2354(4) 0.9593(3) 0.0186 Uani
H9 H 0.2414 0.1755 0.9593 0.0220 Uiso
O1 O 0.4047(4) 0.3408(2) 0.5652(2) 0.0178 Uani
O2 O 0.3229(4) 0.1517(2) 0.4340(2) 0.0136 Uani
O3 O 0.4207(4) 0.1588(3) 0.6416(2) 0.0174 Uani
H10 H 0.407(6) 0.0785(10) 0.625(4) 0.0260 Uiso
O10 O 0.5602(4) 0.4138(2) 0.4020(2) 0.0175 Uani
O11 O 0.3323(4) 0.1138(3) 0.2055(2) 0.0201 Uani
P1 P 0.32400(14) 0.21704(9) 0.54220(9) 0.0119 Uani
O26 O 0.4398(4) 0.5862(2) 0.5980(2) 0.0175 Uani
O27 O 0.5953(4) 0.6592(2) 0.4348(2) 0.0178 Uani
O29 O 0.1757(4) 0.2919(3) 0.2804(3) 0.0222 Uani
O30 O 0.7454(4) 0.5022(2) 0.6310(2) 0.0155 Uani
O31 O 0.2546(4) 0.4978(2) 0.3690(2) 0.0155 Uani
O13 O 0.2308(4) 0.9329(3) 0.3499(3) 0.0264 Uani
H13 H 0.291(5) 0.941(3) 0.4262(14) 0.0400 Uiso
H14 H 0.211(6) 0.8552(14) 0.319(3) 0.0400 Uiso
O19 O 0.1925(4) 0.4515(3) 0.1616(2) 0.0203 Uani
H25 H 0.298(2) 0.489(4) 0.174(4) 0.0300 Uiso
O20 O 0.1304(4) 0.7314(3) 0.0479(2) 0.0187 Uani
H26 H 0.183(5) 0.722(4) 0.1221(16) 0.0280 Uiso
O21 O 0.0910(4) 0.9222(3) 0.1299(2) 0.0247 Uani
O24 O 0.0193(4) 0.9240(3) 0.7116(2) 0.0196 Uani
P5 P 0.15338(14) 0.41348(9) 0.26695(9) 0.0134 Uani
P6 P 0.02035(15) 0.82737(9) 0.03452(9) 0.0149 Uani
O33 O 0.0071(4) 0.8607(3) 0.9202(2) 0.0177 Uani
O9 O 0.9929(4) 0.1393(3) 0.0798(2) 0.0177 Uani
O4 O 0.8243(4) 0.7081(3) 0.7196(3) 0.0222 Uani
O6 O 0.8075(4) 0.5485(3) 0.8384(2) 0.0203 Uani
H11 H 0.702(2) 0.511(4) 0.826(4) 0.0300 Uiso
O7 O 0.8696(4) 0.2686(3) 0.9521(2) 0.0187 Uani
H12 H 0.817(5) 0.278(4) 0.8779(16) 0.0280 Uiso
O8 O 0.9090(4) 0.0778(3) 0.8701(2) 0.0247 Uani
O12 O 0.9807(4) 0.0760(3) 0.2884(2) 0.0196 Uani
P2 P 0.84662(14) 0.58652(9) 0.73305(9) 0.0134 Uani
P3 P 0.97965(15) 0.17263(9) 0.96548(9) 0.0149 Uani
O25 O 0.7692(4) 0.0671(3) 0.6501(3) 0.0264 Uani
H27 H 0.709(5) 0.059(3) 0.5738(14) 0.0400 Uiso
H28 H 0.789(6) 0.1448(14) 0.681(3) 0.0400 Uiso
U10 U 0.84439(2) 0.905600(13) 0.753909(13) 0.0121 Uani
C10 C 0.8795(5) 0.7207(4) 0.3431(3) 0.0138 Uani
C11 C 0.9090(5) 0.6085(4) 0.3411(3) 0.0153 Uani
H15 H 0.9299 0.5745 0.4079 0.0180 Uiso
C12 C 0.9086(5) 0.5452(4) 0.2427(3) 0.0131 Uani
C13 C 0.8775(5) 0.5952(4) 0.1448(3) 0.0154 Uani
H16 H 0.8762 0.5524 0.0773 0.0180 Uiso
C14 C 0.8480(6) 0.7081(4) 0.1454(4) 0.0169 Uani
C15 C 0.8501(5) 0.7705(4) 0.2444(3) 0.0161 Uani
H17 H 0.8315 0.8475 0.2451 0.0190 Uiso
C16 C 0.8758(5) 0.7877(4) 0.4495(3) 0.0164 Uani
H18 H 0.9416 0.7560 0.5141 0.0190 Uiso
H19 H 0.9239 0.8683 0.4533 0.0190 Uiso
C17 C 0.9450(5) 0.4246(4) 0.2423(4) 0.0156 Uani
H20 H 0.9076 0.3894 0.3002 0.0190 Uiso
H21 H 0.8830 0.3802 0.1693 0.0190 Uiso
C18 C 0.8277(6) 0.7646(4) 0.0407(3) 0.0186 Uani
H23 H 0.7586 0.8245 0.0407 0.0220 Uiso
O15 O 0.6771(4) 0.8483(2) 0.5660(2) 0.0136 Uani
O16 O 0.5793(4) 0.8412(3) 0.3584(2) 0.0174 Uani
H24 H 0.593(6) 0.9215(10) 0.375(4) 0.0260 Uiso
O23 O 0.6677(4) 0.8862(3) 0.7945(2) 0.0201 Uani
P4 P 0.67600(14) 0.78296(9) 0.45780(9) 0.0119 Uani
H22 H 0.7747 0.7071 0.9744 0.0220 Uiso
loop_
_atom_site_aniso_label
_atom_site_aniso_U_11
_atom_site_aniso_U_22
_atom_site_aniso_U_33
_atom_site_aniso_U_23
_atom_site_aniso_U_13
_atom_site_aniso_U_12
U8 0.01707 0.00951 0.0091 0.00082 0.0028 0.00292
U1 0.01322 0.0087 0.01014 -0.0006 0.00232 0.00166
C1 0.009 0.015 0.018 0.0003 0.0057 0.0011
C2 0.013 0.021 0.011 0.0054 0.0011 0.003
C3 0.01 0.014 0.016 0.0033 0.0032 0.005
C4 0.015 0.018 0.011 -0.0013 0.0014 0.0029
C5 0.02 0.018 0.015 0.0053 0.006 0.008
C6 0.013 0.017 0.019 0.0025 0.0047 0.005
C7 0.021 0.015 0.012 -0.0014 0.0046 0.002
C8 0.016 0.014 0.014 -0.0002 0.002 -0.001
C9 0.028 0.016 0.013 -0.0009 0.006 0.011
O1 0.0248 0.0107 0.016 -0.0002 0.0057 -0.0023
O2 0.0158 0.0132 0.0101 -0.0015 0.0021 0.002
O3 0.0221 0.0169 0.0125 0.005 0.002 0.0058
O10 0.0207 0.0143 0.0164 -0.0023 0.0052 0.0025
O11 0.0219 0.0232 0.0177 0.0027 0.0084 0.0066
P1 0.0148 0.0104 0.0097 0.0004 0.0029 0.0018
O26 0.0207 0.0143 0.0164 -0.0023 0.0052 0.0025
O27 0.0248 0.0107 0.016 -0.0002 0.0057 -0.0023
O29 0.026 0.0097 0.0252 0.0019 -0.0025 0.0065
O30 0.0157 0.0106 0.0153 -0.003 -0.0014 0.0015
O31 0.0157 0.0106 0.0153 -0.003 -0.0014 0.0015
O13 0.044 0.0113 0.015 0.0018 -0.0052 0.005
O19 0.0194 0.0256 0.0165 0.0028 0.0072 0.0015
O20 0.023 0.016 0.0171 0.0061 0.0025 0.0085
O21 0.044 0.0106 0.0133 -0.0009 -0.0004 0.0049
O24 0.0192 0.0249 0.0138 0.0034 0.0041 0.0015
P5 0.0149 0.0099 0.0136 -0.0002 0.0016 0.0029
P6 0.0239 0.0091 0.0095 0.0011 0.0013 0.0039
O33 0.0254 0.0162 0.0106 0.0056 0.0022 0.0045
O9 0.0254 0.0162 0.0106 0.0056 0.0022 0.0045
O4 0.026 0.0097 0.0252 0.0019 -0.0025 0.0065
O6 0.0194 0.0256 0.0165 0.0028 0.0072 0.0015
O7 0.023 0.016 0.0171 0.0061 0.0025 0.0085
O8 0.044 0.0106 0.0133 -0.0009 -0.0004 0.0049
O12 0.0192 0.0249 0.0138 0.0034 0.0041 0.0015
P2 0.0149 0.0099 0.0136 -0.0002 0.0016 0.0029
P3 0.0239 0.0091 0.0095 0.0011 0.0013 0.0039
O25 0.044 0.0113 0.015 0.0018 -0.0052 0.005
U10 0.01707 0.00951 0.0091 0.00082 0.0028 0.00292
C10 0.009 0.015 0.018 0.0003 0.0057 0.0011
C11 0.013 0.021 0.011 0.0054 0.0011 0.003
C12 0.01 0.014 0.016 0.0033 0.0032 0.005
C13 0.015 0.018 0.011 -0.0013 0.0014 0.0029
C14 0.02 0.018 0.015 0.0053 0.006 0.008
C15 0.013 0.017 0.019 0.0025 0.0047 0.005
C16 0.021 0.015 0.012 -0.0014 0.0046 0.002
C17 0.016 0.014 0.014 -0.0002 0.002 -0.001
C18 0.028 0.016 0.013 -0.0009 0.006 0.011
O15 0.0158 0.0132 0.0101 -0.0015 0.0021 0.002
O16 0.0221 0.0169 0.0125 0.005 0.002 0.0058
O23 0.0219 0.0232 0.0177 0.0027 0.0084 0.0066
P4 0.0148 0.0104 0.0097 0.0004 0.0029 0.0018
loop_
_geom_bond_atom_site_label_1
_geom_bond_atom_site_label_2
_geom_bond_site_symmetry_1
_geom_bond_site_symmetry_2
U1 O1 1_555 1_555
U8 O2 1_555 1_555
C1 C2 1_555 1_555
C2 H1 1_555 1_555
C3 C2 1_555 1_555
C4 C3 1_555 1_555
H2 C4 1_555 1_555
C5 C4 1_555 1_555
C6 C1 1_555 1_555
H3 C6 1_555 1_555
C7 C1 1_555 1_555
H4 C7 1_555 1_555
H5 C7 1_555 1_555
C8 C3 1_555 1_555
H6 C8 1_555 1_555
H7 C8 1_555 1_555
C9 C5 1_555 1_555
H9 C9 1_555 1_555
O1 P1 1_555 1_555
O2 P1 1_555 1_555
O3 H10 1_555 1_555
O10 U1 1_555 1_555
O11 U8 1_555 1_555
P1 C7 1_555 1_555
O26 U1 1_555 1_555
O27 U1 1_555 1_555
O29 U8 1_555 1_555
O30 U1 1_555 1_555
O31 U1 1_555 1_555
C5 C6 1_555 1_555
O3 P1 1_555 1_555
H13 O13 1_555 1_555
H14 O13 1_555 1_555
O29 P5 1_555 1_555
O31 P5 1_555 1_555
O19 H25 1_555 1_555
O20 H26 1_555 1_555
O19 P5 1_555 1_555
O20 P6 1_555 1_555
O21 P6 1_555 1_555
O4 P2 1_555 1_555
O30 P2 1_555 1_555
O6 H11 1_555 1_555
O7 H12 1_555 1_555
O8 P3 1_555 1_555
H27 O25 1_555 1_555
H28 O25 1_555 1_555
U10 O4 1_555 1_555
O6 P2 1_555 1_555
O7 P3 1_555 1_555
C10 C11 1_555 1_555
C11 H15 1_555 1_555
C12 C11 1_555 1_555
C13 C12 1_555 1_555
H16 C13 1_555 1_555
C14 C13 1_555 1_555
C15 C10 1_555 1_555
H17 C15 1_555 1_555
C16 C10 1_555 1_555
H18 C16 1_555 1_555
H19 C16 1_555 1_555
C17 C12 1_555 1_555
H20 C17 1_555 1_555
H21 C17 1_555 1_555
C18 C14 1_555 1_555
H23 C18 1_555 1_555
O27 P4 1_555 1_555
O15 U10 1_555 1_555
O16 H24 1_555 1_555
O23 U10 1_555 1_555
P4 C16 1_555 1_555
C14 C15 1_555 1_555
O15 P4 1_555 1_555
O16 P4 1_555 1_555

#END
