
###############################################################################
#
# This file contains modified crystal structure data generated from the
# MOF subset of the Cambridge Structural Database (CSD) v543 
# hosted by the Cambridge Crystallographic Data Centre (CCDC).
#
# This work is licensed under the Creative Commons
# Attribution-NonCommercial-ShareAlike 4.0 International License.
# To view a copy of this license, visit
# http://creativecommons.org/licenses/by-nc-sa/4.0/
# or send a letter to
# Creative Commons, PO Box 1866, Mountain View, CA 94042, USA.
#
# CIF created using the CSD Python API on 29 September 2022
# The structure has been converted into the P1 space group
# The structure has a 3D framework
# The original CSD entry ZOFBUU is in the hexagonal crystal system
# The framework has been calculated to contain at least 10.0% void space
# The void calculation uses a probe of radius 1.32A, grid spacing 0.4
#
###############################################################################

data_ZOFBUU
_chemical_formula_moiety         '(C132 H96 Gd2 O30)n'
_symmetry_cell_setting           triclinic
_symmetry_space_group_name_H-M   'P 1'
_symmetry_Int_Tables_number      1
_space_group_name_Hall           'P 1'
loop_
_symmetry_equiv_pos_site_id
_symmetry_equiv_pos_as_xyz
1 x,y,z
_cell_length_a                   13.3287(4)
_cell_length_b                   13.3287(4)
_cell_length_c                   19.9223(4)
_cell_angle_alpha                90
_cell_angle_beta                 90
_cell_angle_gamma                120
_cell_volume                     3065.11
loop_
_atom_site_label
_atom_site_type_symbol
_atom_site_fract_x
_atom_site_fract_y
_atom_site_fract_z
O13 O 0.1178(9) 0.6490(7) 0.2500
C50 C 0.0314(10) 0.7011(7) 0.0136(3)
H35 H 0.0925 0.7713 0.0285
C52 C 0.0125(8) 0.6284(6) 0.1292(3)
H37 H 0.0923 0.6701 0.1354
C56 C 0.0152(11) 0.6136(8) 0.2500
C62 C 0.0314(10) 0.7011(7) 0.4864(3)
H44 H 0.0925 0.7713 0.4715
C63 C 0.0021(9) 0.6869(6) 0.5539(3)
H45 H 0.0432 0.7474 0.5839
C64 C 0.0125(8) 0.6284(6) 0.3708(3)
H46 H 0.0923 0.6701 0.3646
Gd5 Gd 0.3334 0.6667 0.2500
O3 O 0.3510(7) 0.4688(6) 0.2500
C4 C 0.4912(6) 0.3706(6) 0.0360(3)
H2 H 0.5512 0.3889 0.0662
C5 C 0.3874(6) 0.3588(6) 0.0591(2)
C6 C 0.2989(7) 0.3303(7) 0.0136(3)
H3 H 0.2287 0.3212 0.0285
C8 C 0.3716(6) 0.3841(6) 0.1292(3)
H5 H 0.3299 0.4222 0.1354
C9 C 0.4106(6) 0.3585(5) 0.1851(2)
C10 C 0.4704(7) 0.2880(6) 0.1876(2)
H6 H 0.5536 0.3396 0.1879
H7 H 0.4506 0.2398 0.1478
C11 C 0.4349(10) 0.2116(8) 0.2500
H8 H 0.3518 0.1596 0.2500
H9 H 0.4725 0.1653 0.2500
C12 C 0.3864(8) 0.4016(8) 0.2500
O4 O 0.5283(4) 0.3237(4) 0.66742(18)
O5 O 0.3556(5) 0.3018(7) 0.68885(19)
C13 C 0.4369(6) 0.3175(6) 0.6500(3)
C14 C 0.4173(6) 0.3288(6) 0.5766(3)
C15 C 0.5069(6) 0.3557(6) 0.5314(3)
H10 H 0.5766 0.3636 0.5462
C16 C 0.4912(6) 0.3706(6) 0.4640(3)
H11 H 0.5512 0.3889 0.4338
C17 C 0.3874(6) 0.3588(6) 0.4409(2)
C18 C 0.2989(7) 0.3303(7) 0.4864(3)
H12 H 0.2287 0.3212 0.4715
C19 C 0.3131(6) 0.3152(7) 0.5539(3)
H13 H 0.2526 0.2958 0.5839
C20 C 0.3716(6) 0.3841(6) 0.3708(3)
H14 H 0.3299 0.4222 0.3646
C21 C 0.4106(6) 0.3585(5) 0.3149(2)
C22 C 0.4704(7) 0.2880(6) 0.3124(2)
H15 H 0.5536 0.3396 0.3121
H16 H 0.4506 0.2398 0.3522
C26 C 0.6294(6) 0.1206(8) 0.0360(3)
H18 H 0.6111 0.1623 0.0662
C27 C 0.6412(6) 0.0286(8) 0.0591(2)
C31 C 0.6415(5) 0.0521(8) 0.1851(2)
C32 C 0.7120(6) 0.1824(9) 0.1876(2)
H22 H 0.6604 0.2140 0.1879
H23 H 0.7602 0.2108 0.1478
C33 C 0.7884(8) 0.2233(13) 0.2500
H24 H 0.8404 0.1922 0.2500
H25 H 0.8347 0.3072 0.2500
O9 O 0.6763(4) 0.2046(6) 0.66742(18)
O10 O 0.6982(7) 0.0538(9) 0.68885(19)
C35 C 0.6825(6) 0.1194(8) 0.6500(3)
C36 C 0.6712(6) 0.0885(8) 0.5766(3)
C37 C 0.6443(6) 0.1512(8) 0.5314(3)
H26 H 0.6364 0.2130 0.5462
C38 C 0.6294(6) 0.1206(8) 0.4640(3)
H27 H 0.6111 0.1623 0.4338
C39 C 0.6412(6) 0.0286(8) 0.4409(2)
C43 C 0.6415(5) 0.0521(8) 0.3149(2)
C44 C 0.7120(6) 0.1824(9) 0.3124(2)
H31 H 0.6604 0.2140 0.3121
H32 H 0.7602 0.2108 0.3522
C48 C 0.8794(8) 0.5088(6) 0.0360(3)
H34 H 0.8377 0.4488 0.0662
C49 C 0.9714(8) 0.6126(6) 0.0591(2)
C53 C 0.9479(8) 0.5894(6) 0.1851(2)
C54 C 0.8176(9) 0.5296(7) 0.1876(2)
H38 H 0.7860 0.4464 0.1879
H39 H 0.7892 0.5494 0.1478
C55 C 0.7767(13) 0.5651(10) 0.2500
H40 H 0.8078 0.6482 0.2500
H41 H 0.6928 0.5275 0.2500
O14 O 0.7954(6) 0.4717(4) 0.66742(18)
O15 O 0.9462(9) 0.6444(5) 0.68885(19)
C57 C 0.8806(8) 0.5631(6) 0.6500(3)
C58 C 0.9115(8) 0.5827(6) 0.5766(3)
C59 C 0.8488(8) 0.4931(6) 0.5314(3)
H42 H 0.7870 0.4234 0.5462
C60 C 0.8794(8) 0.5088(6) 0.4640(3)
H43 H 0.8377 0.4488 0.4338
C61 C 0.9714(8) 0.6126(6) 0.4409(2)
C65 C 0.9479(8) 0.5894(6) 0.3149(2)
C66 C 0.8176(9) 0.5296(7) 0.3124(2)
H47 H 0.7860 0.4464 0.3121
H48 H 0.7892 0.5494 0.3522
Gd2 Gd 0.6667 0.3333 0.7500
O1 O 0.5283(4) 0.3237(4) 0.83258(18)
O2 O 0.3556(5) 0.3018(7) 0.81115(19)
C1 C 0.4369(6) 0.3175(6) 0.8500(3)
C2 C 0.4173(6) 0.3288(6) 0.9234(3)
C3 C 0.5069(6) 0.3557(6) 0.9686(3)
H1 H 0.5766 0.3636 0.9538
C7 C 0.3131(6) 0.3152(7) 0.9461(3)
H4 H 0.2526 0.2958 0.9161
O6 O 0.6763(4) 0.2046(6) 0.83258(18)
O7 O 0.6982(7) 0.0538(9) 0.81115(19)
C23 C 0.6825(6) 0.1194(8) 0.8500(3)
C24 C 0.6712(6) 0.0885(8) 0.9234(3)
C25 C 0.6443(6) 0.1512(8) 0.9686(3)
H17 H 0.6364 0.2130 0.9538
O11 O 0.7954(6) 0.4717(4) 0.83258(18)
O12 O 0.9462(9) 0.6444(5) 0.81115(19)
C45 C 0.8806(8) 0.5631(6) 0.8500(3)
C46 C 0.9115(8) 0.5827(6) 0.9234(3)
C47 C 0.8488(8) 0.4931(6) 0.9686(3)
H33 H 0.7870 0.4234 0.9538
O19 O 0.8822(9) 0.3510(7) 0.7500
O20 O 0.6490(7) 0.5312(6) 0.7500
O21 O 0.4688(6) 0.1178(9) 0.7500
O8 O 0.5312(6) 0.8822(9) 0.2500
C28 C 0.6697(7) 0.9686(10) 0.0136(3)
H19 H 0.6788 0.9075 0.0285
C30 C 0.6159(6) 0.9875(8) 0.1292(3)
H21 H 0.5778 0.9077 0.1354
C34 C 0.5984(8) 0.9848(11) 0.2500
C40 C 0.6697(7) 0.9686(10) 0.4864(3)
H28 H 0.6788 0.9075 0.4715
C41 C 0.6848(7) 0.9979(9) 0.5539(3)
H29 H 0.7042 0.9568 0.5839
C42 C 0.6159(6) 0.9875(8) 0.3708(3)
H30 H 0.5778 0.9077 0.3646
C50_2 C 0.3303(12) 0.0314(10) 0.5136(3)
H35_2 H 0.3212 0.0925 0.5285
C51 C 0.3152(11) 0.0021(9) 0.4461(3)
H36 H 0.2958 0.0432 0.4161
C52_2 C 0.3841(10) 0.0125(8) 0.6292(3)
H37_2 H 0.4222 0.0923 0.6354
C56_2 C 0.4016(14) 0.0152(11) 0.7500
C62_2 C 0.3303(12) 0.0314(10) 0.9864(3)
H44_2 H 0.3212 0.0925 0.9715
C64_2 C 0.3841(10) 0.0125(8) 0.8708(3)
H46_2 H 0.4222 0.0923 0.8646
O4_2 O 0.2046(6) 0.5283(4) 0.16742(18)
O5_2 O 0.0538(9) 0.3556(5) 0.18885(19)
C13_2 C 0.1194(8) 0.4369(6) 0.1500(3)
C14_2 C 0.0885(8) 0.4173(6) 0.0766(3)
C15_2 C 0.1512(8) 0.5069(6) 0.0314(3)
H10_2 H 0.2130 0.5766 0.0462
O9_2 O 0.4717(7) 0.6763(4) 0.16742(18)
O10_2 O 0.6444(11) 0.6982(7) 0.18885(19)
C35_2 C 0.5631(10) 0.6825(6) 0.1500(3)
C36_2 C 0.5827(10) 0.6712(6) 0.0766(3)
C37_2 C 0.4931(10) 0.6443(6) 0.0314(3)
H26_2 H 0.4234 0.6364 0.0462
C41_2 C 0.6869(11) 0.6848(7) 0.0539(3)
H29_2 H 0.7474 0.7042 0.0839
O14_2 O 0.3237(7) 0.7954(6) 0.16742(18)
O15_2 O 0.3018(10) 0.9462(9) 0.18885(19)
C57_2 C 0.3175(10) 0.8806(8) 0.1500(3)
C58_2 C 0.3288(10) 0.9115(8) 0.0766(3)
C59_2 C 0.3557(10) 0.8488(8) 0.0314(3)
H42_2 H 0.3636 0.7870 0.0462
O1_2 O 0.2046(6) 0.5283(4) 0.33258(18)
O2_2 O 0.0538(9) 0.3556(5) 0.31115(19)
C1_2 C 0.1194(8) 0.4369(6) 0.3500(3)
C2_2 C 0.0885(8) 0.4173(6) 0.4234(3)
C3_2 C 0.1512(8) 0.5069(6) 0.4686(3)
H1_2 H 0.2130 0.5766 0.4538
C4_2 C 0.1206(8) 0.4912(6) 0.5360(3)
H2_2 H 0.1623 0.5512 0.5662
C5_2 C 0.0286(8) 0.3874(6) 0.5591(2)
C9_2 C 0.0521(8) 0.4106(6) 0.6851(2)
C10_2 C 0.1824(9) 0.4704(7) 0.6876(2)
H6_2 H 0.2140 0.5536 0.6879
H7_2 H 0.2108 0.4506 0.6478
C11_2 C 0.2233(13) 0.4349(10) 0.7500
H8_2 H 0.1922 0.3518 0.7500
H9_2 H 0.3072 0.4725 0.7500
C16_2 C 0.1206(8) 0.4912(6) 0.9640(3)
H11_2 H 0.1623 0.5512 0.9338
C17_2 C 0.0286(8) 0.3874(6) 0.9409(2)
C21_2 C 0.0521(8) 0.4106(6) 0.8149(2)
C22_2 C 0.1824(9) 0.4704(7) 0.8124(2)
H15_2 H 0.2140 0.5536 0.8121
H16_2 H 0.2108 0.4506 0.8522
O6_2 O 0.4717(7) 0.6763(4) 0.33258(18)
O7_2 O 0.6444(11) 0.6982(7) 0.31115(19)
C23_2 C 0.5631(10) 0.6825(6) 0.3500(3)
C24_2 C 0.5827(10) 0.6712(6) 0.4234(3)
C25_2 C 0.4931(10) 0.6443(6) 0.4686(3)
H17_2 H 0.4234 0.6364 0.4538
C26_2 C 0.5088(10) 0.6294(6) 0.5360(3)
H18_2 H 0.4488 0.6111 0.5662
C27_2 C 0.6126(10) 0.6412(6) 0.5591(2)
C28_2 C 0.7011(12) 0.6697(7) 0.5136(3)
H19_2 H 0.7713 0.6788 0.5285
C29 C 0.6869(11) 0.6848(7) 0.4461(3)
H20 H 0.7474 0.7042 0.4161
C30_2 C 0.6284(10) 0.6159(6) 0.6292(3)
H21_2 H 0.6701 0.5778 0.6354
C31_2 C 0.5894(9) 0.6415(5) 0.6851(2)
C32_2 C 0.5296(11) 0.7120(6) 0.6876(2)
H22_2 H 0.4464 0.6604 0.6879
H23_2 H 0.5494 0.7602 0.6478
C33_2 C 0.5651(15) 0.7884(8) 0.7500
H24_2 H 0.6482 0.8404 0.7500
H25_2 H 0.5275 0.8347 0.7500
C34_2 C 0.6136(14) 0.5984(8) 0.7500
C38_2 C 0.5088(10) 0.6294(6) 0.9640(3)
H27_2 H 0.4488 0.6111 0.9338
C39_2 C 0.6126(10) 0.6412(6) 0.9409(2)
C40_2 C 0.7011(12) 0.6697(7) 0.9864(3)
H28_2 H 0.7713 0.6788 0.9715
C42_2 C 0.6284(10) 0.6159(6) 0.8708(3)
H30_2 H 0.6701 0.5778 0.8646
C43_2 C 0.5894(9) 0.6415(5) 0.8149(2)
C44_2 C 0.5296(11) 0.7120(6) 0.8124(2)
H31_2 H 0.4464 0.6604 0.8121
H32_2 H 0.5494 0.7602 0.8522
O11_2 O 0.3237(7) 0.7954(6) 0.33258(18)
O12_2 O 0.3018(10) 0.9462(9) 0.31115(19)
C45_2 C 0.3175(10) 0.8806(8) 0.3500(3)
C46_2 C 0.3288(10) 0.9115(8) 0.4234(3)
C47_2 C 0.3557(10) 0.8488(8) 0.4686(3)
H33_2 H 0.3636 0.7870 0.4538
C48_2 C 0.3706(10) 0.8794(8) 0.5360(3)
H34_2 H 0.3889 0.8377 0.5662
C49_2 C 0.3588(10) 0.9714(8) 0.5591(2)
C53_2 C 0.3585(10) 0.9479(8) 0.6851(2)
C54_2 C 0.2880(11) 0.8176(9) 0.6876(2)
H38_2 H 0.3396 0.7860 0.6879
H39_2 H 0.2398 0.7892 0.6478
C55_2 C 0.2116(16) 0.7767(13) 0.7500
H40_2 H 0.1596 0.8078 0.7500
H41_2 H 0.1653 0.6928 0.7500
C60_2 C 0.3706(10) 0.8794(8) 0.9640(3)
H43_2 H 0.3889 0.8377 0.9338
C61_2 C 0.3588(10) 0.9714(8) 0.9409(2)
C65_2 C 0.3585(10) 0.9479(8) 0.8149(2)
C66_2 C 0.2880(11) 0.8176(9) 0.8124(2)
H47_2 H 0.3396 0.7860 0.8121
H48_2 H 0.2398 0.7892 0.8522
C6_2 C 0.9686(10) 0.2989(7) 0.5136(3)
H3_2 H 0.9075 0.2287 0.5285
C7_2 C 0.9979(9) 0.3131(6) 0.4461(3)
H4_2 H 0.9568 0.2526 0.4161
C8_2 C 0.9875(8) 0.3716(6) 0.6292(3)
H5_2 H 0.9077 0.3299 0.6354
C12_2 C 0.9848(11) 0.3864(8) 0.7500
C18_2 C 0.9686(10) 0.2989(7) 0.9864(3)
H12_2 H 0.9075 0.2287 0.9715
C20_2 C 0.9875(8) 0.3716(6) 0.8708(3)
H14_2 H 0.9077 0.3299 0.8646
C51_2 C 0.0021(9) 0.6869(6) 0.9461(3)
H36_2 H 0.0432 0.7474 0.9161
C29_2 C 0.6848(7) 0.9979(9) 0.9461(3)
H20_2 H 0.7042 0.9568 0.9161
C63_2 C 0.3152(11) 0.0021(9) 0.0539(3)
H45_2 H 0.2958 0.0432 0.0839
C19_2 C 0.9979(9) 0.3131(6) 0.0539(3)
H13_2 H 0.9568 0.2526 0.0839
loop_
_geom_bond_atom_site_label_1
_geom_bond_atom_site_label_2
_geom_bond_site_symmetry_1
_geom_bond_site_symmetry_2
O13 C56 1_555 1_555
H35 C50 1_555 1_555
H37 C52 1_555 1_555
H44 C62 1_555 1_555
H45 C63 1_555 1_555
H46 C64 1_555 1_555
Gd5 O13 1_555 1_555
C62 C63 1_555 1_555
O3 C12 1_555 1_555
H2 C4 1_555 1_555
C5 C4 1_555 1_555
C6 C5 1_555 1_555
H3 C6 1_555 1_555
C8 C5 1_555 1_555
H5 C8 1_555 1_555
C9 C8 1_555 1_555
C10 C9 1_555 1_555
H6 C10 1_555 1_555
H7 C10 1_555 1_555
C11 C10 1_555 1_555
H8 C11 1_555 1_555
H9 C11 1_555 1_555
C12 C9 1_555 1_555
O4 C13 1_555 1_555
O5 C13 1_555 1_555
C13 C14 1_555 1_555
C14 C15 1_555 1_555
C15 H10 1_555 1_555
C16 C15 1_555 1_555
H11 C16 1_555 1_555
C17 C16 1_555 1_555
C18 C17 1_555 1_555
H12 C18 1_555 1_555
C19 C14 1_555 1_555
H13 C19 1_555 1_555
C20 C17 1_555 1_555
H14 C20 1_555 1_555
C21 C12 1_555 1_555
C22 C11 1_555 1_555
H15 C22 1_555 1_555
H16 C22 1_555 1_555
H18 C26 1_555 1_555
C27 C26 1_555 1_555
C32 C31 1_555 1_555
H22 C32 1_555 1_555
H23 C32 1_555 1_555
C33 C32 1_555 1_555
H24 C33 1_555 1_555
H25 C33 1_555 1_555
O9 C35 1_555 1_555
O10 C35 1_555 1_555
C35 C36 1_555 1_555
C36 C37 1_555 1_555
C37 H26 1_555 1_555
C38 C37 1_555 1_555
H27 C38 1_555 1_555
C39 C38 1_555 1_555
C44 C33 1_555 1_555
H31 C44 1_555 1_555
H32 C44 1_555 1_555
H34 C48 1_555 1_555
C49 C48 1_555 1_555
C54 C53 1_555 1_555
H38 C54 1_555 1_555
H39 C54 1_555 1_555
C55 C54 1_555 1_555
H40 C55 1_555 1_555
H41 C55 1_555 1_555
O14 C57 1_555 1_555
O15 C57 1_555 1_555
C57 C58 1_555 1_555
C58 C59 1_555 1_555
C59 H42 1_555 1_555
C60 C59 1_555 1_555
H43 C60 1_555 1_555
C61 C60 1_555 1_555
C66 C55 1_555 1_555
H47 C66 1_555 1_555
H48 C66 1_555 1_555
Gd2 O4 1_555 1_555
Gd5 O3 1_555 1_555
C18 C19 1_555 1_555
C20 C21 1_555 1_555
C21 C22 1_555 1_555
O9 Gd2 1_555 1_555
C43 C44 1_555 1_555
O14 Gd2 1_555 1_555
C65 C66 1_555 1_555
Gd2 O1 1_555 1_555
O1 C1 1_555 1_555
O2 C1 1_555 1_555
C1 C2 1_555 1_555
C2 C3 1_555 1_555
C3 H1 1_555 1_555
C7 C2 1_555 1_555
H4 C7 1_555 1_555
O6 Gd2 1_555 1_555
O7 C23 1_555 1_555
C23 O6 1_555 1_555
C24 C23 1_555 1_555
C25 C24 1_555 1_555
H17 C25 1_555 1_555
O11 Gd2 1_555 1_555
O12 C45 1_555 1_555
C45 O11 1_555 1_555
C46 C45 1_555 1_555
C47 C46 1_555 1_555
H33 C47 1_555 1_555
O19 Gd2 1_555 1_555
O20 Gd2 1_555 1_555
O21 Gd2 1_555 1_555
O8 C34 1_555 1_555
H19 C28 1_555 1_555
H21 C30 1_555 1_555
H28 C40 1_555 1_555
H29 C41 1_555 1_555
H30 C42 1_555 1_555
Gd5 O8 1_555 1_555
C40 C41 1_555 1_555
O21 C56_2 1_555 1_555
H35_2 C50_2 1_555 1_555
H36 C51 1_555 1_555
H37_2 C52_2 1_555 1_555
H44_2 C62_2 1_555 1_555
H46_2 C64_2 1_555 1_555
C50_2 C51 1_555 1_555
O4_2 C13_2 1_555 1_555
O5_2 C13_2 1_555 1_555
C13_2 C14_2 1_555 1_555
C14_2 C15_2 1_555 1_555
C15_2 H10_2 1_555 1_555
O9_2 C35_2 1_555 1_555
O10_2 C35_2 1_555 1_555
C35_2 C36_2 1_555 1_555
C36_2 C37_2 1_555 1_555
C37_2 H26_2 1_555 1_555
C41_2 C36_2 1_555 1_555
H29_2 C41_2 1_555 1_555
O14_2 C57_2 1_555 1_555
O15_2 C57_2 1_555 1_555
C57_2 C58_2 1_555 1_555
C58_2 C59_2 1_555 1_555
C59_2 H42_2 1_555 1_555
Gd5 O4_2 1_555 1_555
O9_2 Gd5 1_555 1_555
O14_2 Gd5 1_555 1_555
Gd5 O1_2 1_555 1_555
O1_2 C1_2 1_555 1_555
O2_2 C1_2 1_555 1_555
C1_2 C2_2 1_555 1_555
C2_2 C3_2 1_555 1_555
C3_2 H1_2 1_555 1_555
C4_2 C3_2 1_555 1_555
H2_2 C4_2 1_555 1_555
C5_2 C4_2 1_555 1_555
C10_2 C9_2 1_555 1_555
H6_2 C10_2 1_555 1_555
H7_2 C10_2 1_555 1_555
C11_2 C10_2 1_555 1_555
H8_2 C11_2 1_555 1_555
H9_2 C11_2 1_555 1_555
H11_2 C16_2 1_555 1_555
C17_2 C16_2 1_555 1_555
C22_2 C11_2 1_555 1_555
H15_2 C22_2 1_555 1_555
H16_2 C22_2 1_555 1_555
O6_2 Gd5 1_555 1_555
O7_2 C23_2 1_555 1_555
O20 C34_2 1_555 1_555
C23_2 O6_2 1_555 1_555
C24_2 C23_2 1_555 1_555
C25_2 C24_2 1_555 1_555
H17_2 C25_2 1_555 1_555
C26_2 C25_2 1_555 1_555
H18_2 C26_2 1_555 1_555
C27_2 C26_2 1_555 1_555
C28_2 C27_2 1_555 1_555
H19_2 C28_2 1_555 1_555
C29 C24_2 1_555 1_555
H20 C29 1_555 1_555
C30_2 C27_2 1_555 1_555
H21_2 C30_2 1_555 1_555
C31_2 C30_2 1_555 1_555
C32_2 C31_2 1_555 1_555
H22_2 C32_2 1_555 1_555
H23_2 C32_2 1_555 1_555
C33_2 C32_2 1_555 1_555
H24_2 C33_2 1_555 1_555
H25_2 C33_2 1_555 1_555
C34_2 C31_2 1_555 1_555
H27_2 C38_2 1_555 1_555
C39_2 C38_2 1_555 1_555
C40_2 C39_2 1_555 1_555
H28_2 C40_2 1_555 1_555
C42_2 C39_2 1_555 1_555
H30_2 C42_2 1_555 1_555
C43_2 C34_2 1_555 1_555
C44_2 C33_2 1_555 1_555
H31_2 C44_2 1_555 1_555
H32_2 C44_2 1_555 1_555
O11_2 Gd5 1_555 1_555
O12_2 C45_2 1_555 1_555
C45_2 O11_2 1_555 1_555
C46_2 C45_2 1_555 1_555
C47_2 C46_2 1_555 1_555
H33_2 C47_2 1_555 1_555
C48_2 C47_2 1_555 1_555
H34_2 C48_2 1_555 1_555
C49_2 C48_2 1_555 1_555
C54_2 C53_2 1_555 1_555
H38_2 C54_2 1_555 1_555
H39_2 C54_2 1_555 1_555
C55_2 C54_2 1_555 1_555
H40_2 C55_2 1_555 1_555
H41_2 C55_2 1_555 1_555
H43_2 C60_2 1_555 1_555
C61_2 C60_2 1_555 1_555
C66_2 C55_2 1_555 1_555
H47_2 C66_2 1_555 1_555
H48_2 C66_2 1_555 1_555
C21_2 C22_2 1_555 1_555
C28_2 C29 1_555 1_555
C42_2 C43_2 1_555 1_555
C43_2 C44_2 1_555 1_555
C65_2 C66_2 1_555 1_555
O19 C12_2 1_555 1_555
H3_2 C6_2 1_555 1_555
H4_2 C7_2 1_555 1_555
H5_2 C8_2 1_555 1_555
H12_2 C18_2 1_555 1_555
H14_2 C20_2 1_555 1_555
C6_2 C7_2 1_555 1_555
H36_2 C51_2 1_555 1_555
H20_2 C29_2 1_555 1_555
H45_2 C63_2 1_555 1_555
H13_2 C19_2 1_555 1_555

#END
