
###############################################################################
#
# This file contains modified crystal structure data generated from the
# MOF subset of the Cambridge Structural Database (CSD) v543 
# hosted by the Cambridge Crystallographic Data Centre (CCDC).
#
# This work is licensed under the Creative Commons
# Attribution-NonCommercial-ShareAlike 4.0 International License.
# To view a copy of this license, visit
# http://creativecommons.org/licenses/by-nc-sa/4.0/
# or send a letter to
# Creative Commons, PO Box 1866, Mountain View, CA 94042, USA.
#
# CIF created using the CSD Python API on 29 September 2022
# The structure has been converted into the P1 space group
# The structure has a 3D framework
# The original CSD entry ZOFKOX is in the hexagonal crystal system
# The framework has been calculated to contain at least 10.0% void space
# The void calculation uses a probe of radius 1.32A, grid spacing 0.4
# H atom positions have been added when not included in the experimental data
#
###############################################################################

data_ZOFKOX
_chemical_formula_moiety         '(C132 H120 Ce2 O30)n'
_symmetry_cell_setting           triclinic
_symmetry_space_group_name_H-M   'P 1'
_symmetry_Int_Tables_number      1
_space_group_name_Hall           'P 1'
loop_
_symmetry_equiv_pos_site_id
_symmetry_equiv_pos_as_xyz
1 x,y,z
_cell_length_a                   13.3861(6)
_cell_length_b                   13.3861(6)
_cell_length_c                   19.9269(4)
_cell_angle_alpha                90
_cell_angle_beta                 90
_cell_angle_gamma                120
_cell_volume                     3092.28
loop_
_atom_site_label
_atom_site_type_symbol
_atom_site_fract_x
_atom_site_fract_y
_atom_site_fract_z
O2 O 0.1184(6) 0.6478(8) 0.2500
C5 C 0.0141(9) 0.6136(10) 0.2500
C11 C 0.0112(7) 0.6268(7) 0.1292(3)
H8 H 0.0907 0.6683 0.1354
C12 C 0.0314(7) 0.6988(8) 0.0135(3)
H9 H 0.0921 0.7690 0.0282
C16 C 0.0025(6) 0.6840(8) 0.5536(3)
H12 H 0.0449 0.7437 0.5836
C21 C 0.0112(7) 0.6268(7) 0.3708(3)
H15 H 0.0907 0.6683 0.3646
C22 C 0.0314(7) 0.6988(8) 0.4865(3)
H16 H 0.0921 0.7690 0.4718
Ce5 Ce 0.3334 0.6667 0.2500
C3 C 0.8188(6) 0.5292(8) 0.1875(3)
H1 H 0.7875 0.4464 0.1885
H2 H 0.7902 0.5479 0.1475
C4 C 0.7788(10) 0.5667(12) 0.2500
H3 H 0.6954 0.5310 0.2500
H4 H 0.8117 0.6497 0.2500
C7 C 0.9477(6) 0.5890(6) 0.1853(3)
C9 C 0.9717(6) 0.6114(7) 0.0594(3)
C10 C 0.8792(6) 0.5089(7) 0.0355(3)
H7 H 0.8368 0.4494 0.0656
O4 O 0.7948(4) 0.4716(5) 0.6671(2)
O5 O 0.9471(5) 0.6430(6) 0.6887(2)
C13 C 0.9114(6) 0.5817(7) 0.5770(3)
C14 C 0.8799(6) 0.5612(7) 0.6498(3)
C15 C 0.8188(6) 0.5292(8) 0.3125(3)
H10 H 0.7875 0.4464 0.3115
H11 H 0.7902 0.5479 0.3525
C17 C 0.9477(6) 0.5890(6) 0.3147(3)
C18 C 0.8488(6) 0.4933(7) 0.5310(3)
H13 H 0.7865 0.4240 0.5455
C19 C 0.9717(6) 0.6114(7) 0.4406(3)
C20 C 0.8792(6) 0.5089(7) 0.4645(3)
H14 H 0.8368 0.4494 0.4344
O7 O 0.3522(8) 0.4706(10) 0.2500
C25 C 0.4708(8) 0.2896(10) 0.1875(3)
H17 H 0.5536 0.3411 0.1885
H18 H 0.4521 0.2423 0.1475
C26 C 0.4333(12) 0.2121(16) 0.2500
H19 H 0.4690 0.1644 0.2500
H20 H 0.3503 0.1620 0.2500
C27 C 0.3864(10) 0.4005(13) 0.2500
C29 C 0.4110(6) 0.3587(8) 0.1853(3)
C31 C 0.3886(7) 0.3603(9) 0.0594(3)
C32 C 0.4911(7) 0.3703(9) 0.0355(3)
H23 H 0.5506 0.3874 0.0656
C33 C 0.3732(7) 0.3844(10) 0.1292(3)
H24 H 0.3317 0.4224 0.1354
C34 C 0.3012(8) 0.3326(11) 0.0135(3)
H25 H 0.2310 0.3231 0.0282
O9 O 0.5284(5) 0.3232(6) 0.6671(2)
O10 O 0.3570(6) 0.3041(8) 0.6887(2)
C35 C 0.4183(7) 0.3297(9) 0.5770(3)
C36 C 0.4388(7) 0.3187(9) 0.6498(3)
C37 C 0.4708(8) 0.2896(10) 0.3125(3)
H26 H 0.5536 0.3411 0.3115
H27 H 0.4521 0.2423 0.3525
C38 C 0.3160(8) 0.3185(10) 0.5536(3)
H28 H 0.2563 0.3012 0.5836
C39 C 0.4110(6) 0.3587(8) 0.3147(3)
C40 C 0.5067(7) 0.3555(9) 0.5310(3)
H29 H 0.5760 0.3625 0.5455
C41 C 0.3886(7) 0.3603(9) 0.4406(3)
C42 C 0.4911(7) 0.3703(9) 0.4645(3)
H30 H 0.5506 0.3874 0.4344
C43 C 0.3732(7) 0.3844(10) 0.3708(3)
H31 H 0.3317 0.4224 0.3646
C44 C 0.3012(8) 0.3326(11) 0.4865(3)
H32 H 0.2310 0.3231 0.4718
C47 C 0.7104(10) 0.1812(6) 0.1875(3)
H33 H 0.6589 0.2125 0.1885
H34 H 0.7577 0.2098 0.1475
C48 C 0.7879(16) 0.2212(10) 0.2500
H35 H 0.8356 0.3046 0.2500
H36 H 0.8380 0.1883 0.2500
C51 C 0.6413(8) 0.0523(6) 0.1853(3)
C53 C 0.6397(9) 0.0283(6) 0.0594(3)
C54 C 0.6297(9) 0.1208(6) 0.0355(3)
H39 H 0.6126 0.1632 0.0656
O14 O 0.6768(6) 0.2052(4) 0.6671(2)
O15 O 0.6959(8) 0.0529(5) 0.6887(2)
C57 C 0.6703(9) 0.0886(6) 0.5770(3)
C58 C 0.6813(9) 0.1201(6) 0.6498(3)
C59 C 0.7104(10) 0.1812(6) 0.3125(3)
H42 H 0.6589 0.2125 0.3115
H43 H 0.7577 0.2098 0.3525
C61 C 0.6413(8) 0.0523(6) 0.3147(3)
C62 C 0.6445(9) 0.1512(6) 0.5310(3)
H45 H 0.6375 0.2135 0.5455
C63 C 0.6397(9) 0.0283(6) 0.4406(3)
C64 C 0.6297(9) 0.1208(6) 0.4645(3)
H46 H 0.6126 0.1632 0.4344
Ce2 Ce 0.6667 0.3333 0.7500
H50 H 0.632167 0.0185431 0.721952
H51 H 0.386376 0.367833 0.721952
O1 O 0.7948(4) 0.4716(5) 0.8329(2)
O3 O 0.9471(5) 0.6430(6) 0.8113(2)
C1 C 0.9114(6) 0.5817(7) 0.9230(3)
C2 C 0.8799(6) 0.5612(7) 0.8502(3)
C8 C 0.8488(6) 0.4933(7) 0.9690(3)
H6 H 0.7865 0.4240 0.9545
O6 O 0.5284(5) 0.3232(6) 0.8329(2)
O8 O 0.3570(6) 0.3041(8) 0.8113(2)
C23 C 0.4183(7) 0.3297(9) 0.9230(3)
C24 C 0.4388(7) 0.3187(9) 0.8502(3)
C28 C 0.3160(8) 0.3185(10) 0.9464(3)
H21 H 0.2563 0.3012 0.9164
C30 C 0.5067(7) 0.3555(9) 0.9690(3)
H22 H 0.5760 0.3625 0.9545
O11 O 0.6768(6) 0.2052(4) 0.8329(2)
O13 O 0.6959(8) 0.0529(5) 0.8113(2)
C45 C 0.6703(9) 0.0886(6) 0.9230(3)
C46 C 0.6813(9) 0.1201(6) 0.8502(3)
C52 C 0.6445(9) 0.1512(6) 0.9690(3)
H38 H 0.6375 0.2135 0.9545
O19 O 0.4706(10) 0.1184(6) 0.7500
O20 O 0.8816(6) 0.3522(8) 0.7500
O21 O 0.6478(8) 0.5294(10) 0.7500
H49 H 0.902724 0.6734 0.787451
O12 O 0.5294(10) 0.8816(6) 0.2500
C49 C 0.5995(13) 0.9859(9) 0.2500
C55 C 0.6156(10) 0.9888(7) 0.1292(3)
H40 H 0.5776 0.9093 0.1354
C56 C 0.6674(11) 0.9686(7) 0.0135(3)
H41 H 0.6769 0.9079 0.0282
C60 C 0.6815(10) 0.9975(6) 0.5536(3)
H44 H 0.6988 0.9551 0.5836
C65 C 0.6156(10) 0.9888(7) 0.3708(3)
H47 H 0.5776 0.9093 0.3646
C66 C 0.6674(11) 0.9686(7) 0.4865(3)
H48 H 0.6769 0.9079 0.4718
C5_2 C 0.4005(13) 0.0141(9) 0.7500
C6 C 0.3185(10) 0.0025(6) 0.4464(3)
H5 H 0.3012 0.0449 0.4164
C11_2 C 0.3844(10) 0.0112(7) 0.6292(3)
H8_2 H 0.4224 0.0907 0.6354
C12_2 C 0.3326(11) 0.0314(7) 0.5135(3)
H9_2 H 0.3231 0.0921 0.5282
C21_2 C 0.3844(10) 0.0112(7) 0.8708(3)
H15_2 H 0.4224 0.0907 0.8646
C22_2 C 0.3326(11) 0.0314(7) 0.9865(3)
H16_2 H 0.3231 0.0921 0.9718
O4_2 O 0.3232(6) 0.7948(4) 0.1671(2)
O5_2 O 0.3041(8) 0.9471(5) 0.1887(2)
C13_2 C 0.3297(9) 0.9114(6) 0.0770(3)
C14_2 C 0.3187(9) 0.8799(6) 0.1498(3)
C18_2 C 0.3555(9) 0.8488(6) 0.0310(3)
H13_2 H 0.3625 0.7865 0.0455
O9_2 O 0.2052(8) 0.5284(5) 0.1671(2)
O10_2 O 0.0529(10) 0.3570(6) 0.1887(2)
C35_2 C 0.0886(11) 0.4183(7) 0.0770(3)
C36_2 C 0.1201(11) 0.4388(7) 0.1498(3)
C40_2 C 0.1512(11) 0.5067(7) 0.0310(3)
H29_2 H 0.2135 0.5760 0.0455
O14_2 O 0.4716(7) 0.6768(6) 0.1671(2)
O15_2 O 0.6430(9) 0.6959(8) 0.1887(2)
C57_2 C 0.5817(11) 0.6703(9) 0.0770(3)
C58_2 C 0.5612(11) 0.6813(9) 0.1498(3)
C60_2 C 0.6840(12) 0.6815(10) 0.0536(3)
H44_2 H 0.7437 0.6988 0.0836
C62_2 C 0.4933(11) 0.6445(9) 0.0310(3)
H45_2 H 0.4240 0.6375 0.0455
H50_2 H 0.613624 0.632167 0.221952
H51_2 H 0.0185431 0.386376 0.221952
O1_2 O 0.3232(6) 0.7948(4) 0.3329(2)
O3_2 O 0.3041(8) 0.9471(5) 0.3113(2)
C1_2 C 0.3297(9) 0.9114(6) 0.4230(3)
C2_2 C 0.3187(9) 0.8799(6) 0.3502(3)
C3_2 C 0.2896(10) 0.8188(6) 0.6875(3)
H1_2 H 0.3411 0.7875 0.6885
H2_2 H 0.2423 0.7902 0.6475
C4_2 C 0.2121(16) 0.7788(10) 0.7500
H3_2 H 0.1644 0.6954 0.7500
H4_2 H 0.1620 0.8117 0.7500
C7_2 C 0.3587(8) 0.9477(6) 0.6853(3)
C8_2 C 0.3555(9) 0.8488(6) 0.4690(3)
H6_2 H 0.3625 0.7865 0.4545
C9_2 C 0.3603(9) 0.9717(6) 0.5594(3)
C10_2 C 0.3703(9) 0.8792(6) 0.5355(3)
H7_2 H 0.3874 0.8368 0.5656
C15_2 C 0.2896(10) 0.8188(6) 0.8125(3)
H10_2 H 0.3411 0.7875 0.8115
H11_2 H 0.2423 0.7902 0.8525
C17_2 C 0.3587(8) 0.9477(6) 0.8147(3)
C19_2 C 0.3603(9) 0.9717(6) 0.9406(3)
C20_2 C 0.3703(9) 0.8792(6) 0.9645(3)
H14_2 H 0.3874 0.8368 0.9344
O6_2 O 0.2052(8) 0.5284(5) 0.3329(2)
O8_2 O 0.0529(10) 0.3570(6) 0.3113(2)
C23_2 C 0.0886(11) 0.4183(7) 0.4230(3)
C24_2 C 0.1201(11) 0.4388(7) 0.3502(3)
C25_2 C 0.1812(13) 0.4708(8) 0.6875(3)
H17_2 H 0.2125 0.5536 0.6885
H18_2 H 0.2098 0.4521 0.6475
C26_2 C 0.2212(20) 0.4333(12) 0.7500
H19_2 H 0.3046 0.4690 0.7500
H20_2 H 0.1883 0.3503 0.7500
C29_2 C 0.0523(10) 0.4110(6) 0.6853(3)
C30_2 C 0.1512(11) 0.5067(7) 0.4690(3)
H22_2 H 0.2135 0.5760 0.4545
C31_2 C 0.0283(11) 0.3886(7) 0.5594(3)
C32_2 C 0.1208(11) 0.4911(7) 0.5355(3)
H23_2 H 0.1632 0.5506 0.5656
C37_2 C 0.1812(13) 0.4708(8) 0.8125(3)
H26_2 H 0.2125 0.5536 0.8115
H27_2 H 0.2098 0.4521 0.8525
C39_2 C 0.0523(10) 0.4110(6) 0.8147(3)
C41_2 C 0.0283(11) 0.3886(7) 0.9406(3)
C42_2 C 0.1208(11) 0.4911(7) 0.9645(3)
H30_2 H 0.1632 0.5506 0.9344
O11_2 O 0.4716(7) 0.6768(6) 0.3329(2)
O13_2 O 0.6430(9) 0.6959(8) 0.3113(2)
C45_2 C 0.5817(11) 0.6703(9) 0.4230(3)
C46_2 C 0.5612(11) 0.6813(9) 0.3502(3)
C47_2 C 0.5292(12) 0.7104(10) 0.6875(3)
H33_2 H 0.4464 0.6589 0.6885
H34_2 H 0.5479 0.7577 0.6475
C48_2 C 0.5667(19) 0.7879(16) 0.7500
H35_2 H 0.5310 0.8356 0.7500
H36_2 H 0.6497 0.8380 0.7500
C49_2 C 0.6136(16) 0.5995(13) 0.7500
C50 C 0.6840(12) 0.6815(10) 0.4464(3)
H37 H 0.7437 0.6988 0.4164
C51_2 C 0.5890(10) 0.6413(8) 0.6853(3)
C52_2 C 0.4933(11) 0.6445(9) 0.4690(3)
H38_2 H 0.4240 0.6375 0.4545
C53_2 C 0.6114(11) 0.6397(9) 0.5594(3)
C54_2 C 0.5089(11) 0.6297(9) 0.5355(3)
H39_2 H 0.4494 0.6126 0.5656
C55_2 C 0.6268(12) 0.6156(10) 0.6292(3)
H40_2 H 0.6683 0.5776 0.6354
C56_2 C 0.6988(13) 0.6674(11) 0.5135(3)
H41_2 H 0.7690 0.6769 0.5282
C59_2 C 0.5292(12) 0.7104(10) 0.8125(3)
H42_2 H 0.4464 0.6589 0.8115
H43_2 H 0.5479 0.7577 0.8525
C61_2 C 0.5890(10) 0.6413(8) 0.8147(3)
C63_2 C 0.6114(11) 0.6397(9) 0.9406(3)
C64_2 C 0.5089(11) 0.6297(9) 0.9645(3)
H46_2 H 0.4494 0.6126 0.9344
C65_2 C 0.6268(12) 0.6156(10) 0.8708(3)
H47_2 H 0.6683 0.5776 0.8646
C66_2 C 0.6988(13) 0.6674(11) 0.9865(3)
H48_2 H 0.7690 0.6769 0.9718
H49_2 H 0.229324 0.902724 0.287451
C27_2 C 0.9859(16) 0.3864(10) 0.7500
C28_2 C 0.9975(13) 0.3160(8) 0.4464(3)
H21_2 H 0.9551 0.2563 0.4164
C33_2 C 0.9888(12) 0.3732(7) 0.6292(3)
H24_2 H 0.9093 0.3317 0.6354
C34_2 C 0.9686(14) 0.3012(8) 0.5135(3)
H25_2 H 0.9079 0.2310 0.5282
C43_2 C 0.9888(12) 0.3732(7) 0.8708(3)
H31_2 H 0.9093 0.3317 0.8646
C44_2 C 0.9686(14) 0.3012(8) 0.9865(3)
H32_2 H 0.9079 0.2310 0.9718
H50_3 H 0.981457 0.613624 0.721952
H49_3 H 0.3266 0.229324 0.787451
H50_4 H 0.367833 0.981457 0.221952
H49_4 H 0.0972761 0.3266 0.287451
H49_5 H 0.770676 0.0972761 0.787451
H49_6 H 0.6734 0.770676 0.287451
H49_7 H 0.0972761 0.3266 0.212549
H50_5 H 0.367833 0.981457 0.278048
H51_3 H 0.613624 0.632167 0.278048
H49_8 H 0.770676 0.0972761 0.712549
H50_6 H 0.386376 0.367833 0.778048
H51_4 H 0.981457 0.613624 0.778048
H49_9 H 0.6734 0.770676 0.212549
H50_7 H 0.0185431 0.386376 0.278048
H49_10 H 0.902724 0.6734 0.712549
H50_8 H 0.632167 0.0185431 0.778048
H49_11 H 0.229324 0.902724 0.212549
H49_12 H 0.3266 0.229324 0.712549
C6_2 C 0.0025(6) 0.6840(8) 0.9464(3)
H5_2 H 0.0449 0.7437 0.9164
C50_2 C 0.6815(10) 0.9975(6) 0.9464(3)
H37_2 H 0.6988 0.9551 0.9164
C16_2 C 0.3185(10) 0.0025(6) 0.0536(3)
H12_2 H 0.3012 0.0449 0.0836
C38_2 C 0.9975(13) 0.3160(8) 0.0536(3)
H28_2 H 0.9551 0.2563 0.0836
loop_
_geom_bond_atom_site_label_1
_geom_bond_atom_site_label_2
_geom_bond_site_symmetry_1
_geom_bond_site_symmetry_2
O2 C5 1_555 1_555
H8 C11 1_555 1_555
H9 C12 1_555 1_555
H12 C16 1_555 1_555
H15 C21 1_555 1_555
C22 C16 1_555 1_555
H16 C22 1_555 1_555
Ce5 O2 1_555 1_555
C3 H1 1_555 1_555
H2 C3 1_555 1_555
C4 C3 1_555 1_555
H3 C4 1_555 1_555
H4 C4 1_555 1_555
C7 C3 1_555 1_555
C9 C10 1_555 1_555
H7 C10 1_555 1_555
O4 C14 1_555 1_555
O5 C14 1_555 1_555
C13 C14 1_555 1_555
C15 C4 1_555 1_555
H10 C15 1_555 1_555
H11 C15 1_555 1_555
C18 C13 1_555 1_555
H13 C18 1_555 1_555
C19 C20 1_555 1_555
C20 C18 1_555 1_555
H14 C20 1_555 1_555
O7 C27 1_555 1_555
C25 H17 1_555 1_555
H18 C25 1_555 1_555
C26 C25 1_555 1_555
H19 C26 1_555 1_555
H20 C26 1_555 1_555
C27 C29 1_555 1_555
C29 C25 1_555 1_555
C31 C32 1_555 1_555
H23 C32 1_555 1_555
C33 C29 1_555 1_555
H24 C33 1_555 1_555
H25 C34 1_555 1_555
O9 C36 1_555 1_555
O10 C36 1_555 1_555
C35 C36 1_555 1_555
C37 C26 1_555 1_555
H26 C37 1_555 1_555
H27 C37 1_555 1_555
C38 C35 1_555 1_555
H28 C38 1_555 1_555
C39 C27 1_555 1_555
C40 C35 1_555 1_555
H29 C40 1_555 1_555
C41 C42 1_555 1_555
C42 C40 1_555 1_555
H30 C42 1_555 1_555
C43 C39 1_555 1_555
H31 C43 1_555 1_555
C44 C38 1_555 1_555
H32 C44 1_555 1_555
C47 H33 1_555 1_555
H34 C47 1_555 1_555
C48 C47 1_555 1_555
H35 C48 1_555 1_555
H36 C48 1_555 1_555
C51 C47 1_555 1_555
C53 C54 1_555 1_555
H39 C54 1_555 1_555
O14 C58 1_555 1_555
O15 C58 1_555 1_555
C57 C58 1_555 1_555
C59 C48 1_555 1_555
H42 C59 1_555 1_555
H43 C59 1_555 1_555
C62 C57 1_555 1_555
H45 C62 1_555 1_555
C63 C64 1_555 1_555
C64 C62 1_555 1_555
H46 C64 1_555 1_555
Ce2 O4 1_555 1_555
Ce5 O7 1_555 1_555
C15 C17 1_555 1_555
C31 C33 1_555 1_555
C31 C34 1_555 1_555
O9 Ce2 1_555 1_555
C37 C39 1_555 1_555
C41 C43 1_555 1_555
C41 C44 1_555 1_555
O14 Ce2 1_555 1_555
C59 C61 1_555 1_555
O15 H50 1_555 1_555
O10 H51 1_555 1_555
Ce2 O1 1_555 1_555
O1 C2 1_555 1_555
O3 C2 1_555 1_555
C1 C2 1_555 1_555
C8 C1 1_555 1_555
H6 C8 1_555 1_555
O6 Ce2 1_555 1_555
O8 C24 1_555 1_555
C23 C24 1_555 1_555
C24 O6 1_555 1_555
C28 C23 1_555 1_555
H21 C28 1_555 1_555
C30 C23 1_555 1_555
H22 C30 1_555 1_555
O11 Ce2 1_555 1_555
O13 C46 1_555 1_555
C45 C46 1_555 1_555
C46 O11 1_555 1_555
C52 C45 1_555 1_555
H38 C52 1_555 1_555
O19 Ce2 1_555 1_555
O20 Ce2 1_555 1_555
O21 Ce2 1_555 1_555
O3 H49 1_555 1_555
O12 C49 1_555 1_555
H40 C55 1_555 1_555
H41 C56 1_555 1_555
H44 C60 1_555 1_555
H47 C65 1_555 1_555
C66 C60 1_555 1_555
H48 C66 1_555 1_555
Ce5 O12 1_555 1_555
O19 C5_2 1_555 1_555
H5 C6 1_555 1_555
H8_2 C11_2 1_555 1_555
C12_2 C6 1_555 1_555
H9_2 C12_2 1_555 1_555
H15_2 C21_2 1_555 1_555
H16_2 C22_2 1_555 1_555
O4_2 C14_2 1_555 1_555
O5_2 C14_2 1_555 1_555
C13_2 C14_2 1_555 1_555
C18_2 C13_2 1_555 1_555
H13_2 C18_2 1_555 1_555
O9_2 C36_2 1_555 1_555
O10_2 C36_2 1_555 1_555
C35_2 C36_2 1_555 1_555
C40_2 C35_2 1_555 1_555
H29_2 C40_2 1_555 1_555
O14_2 C58_2 1_555 1_555
O15_2 C58_2 1_555 1_555
C57_2 C58_2 1_555 1_555
C60_2 C57_2 1_555 1_555
H44_2 C60_2 1_555 1_555
C62_2 C57_2 1_555 1_555
H45_2 C62_2 1_555 1_555
Ce5 O4_2 1_555 1_555
O9_2 Ce5 1_555 1_555
O14_2 Ce5 1_555 1_555
O15_2 H50_2 1_555 1_555
O10_2 H51_2 1_555 1_555
Ce5 O1_2 1_555 1_555
O1_2 C2_2 1_555 1_555
O3_2 C2_2 1_555 1_555
C1_2 C2_2 1_555 1_555
C3_2 H1_2 1_555 1_555
H2_2 C3_2 1_555 1_555
C4_2 C3_2 1_555 1_555
H3_2 C4_2 1_555 1_555
H4_2 C4_2 1_555 1_555
C7_2 C3_2 1_555 1_555
C8_2 C1_2 1_555 1_555
H6_2 C8_2 1_555 1_555
C9_2 C10_2 1_555 1_555
C10_2 C8_2 1_555 1_555
H7_2 C10_2 1_555 1_555
C15_2 C4_2 1_555 1_555
H10_2 C15_2 1_555 1_555
H11_2 C15_2 1_555 1_555
C19_2 C20_2 1_555 1_555
H14_2 C20_2 1_555 1_555
O6_2 Ce5 1_555 1_555
O8_2 C24_2 1_555 1_555
C23_2 C24_2 1_555 1_555
C24_2 O6_2 1_555 1_555
C25_2 H17_2 1_555 1_555
H18_2 C25_2 1_555 1_555
C26_2 C25_2 1_555 1_555
H19_2 C26_2 1_555 1_555
H20_2 C26_2 1_555 1_555
C29_2 C25_2 1_555 1_555
C30_2 C23_2 1_555 1_555
H22_2 C30_2 1_555 1_555
C31_2 C32_2 1_555 1_555
C32_2 C30_2 1_555 1_555
H23_2 C32_2 1_555 1_555
C37_2 C26_2 1_555 1_555
H26_2 C37_2 1_555 1_555
H27_2 C37_2 1_555 1_555
C41_2 C42_2 1_555 1_555
H30_2 C42_2 1_555 1_555
O11_2 Ce5 1_555 1_555
O21 C49_2 1_555 1_555
O13_2 C46_2 1_555 1_555
C45_2 C46_2 1_555 1_555
C46_2 O11_2 1_555 1_555
C47_2 H33_2 1_555 1_555
H34_2 C47_2 1_555 1_555
C48_2 C47_2 1_555 1_555
H35_2 C48_2 1_555 1_555
H36_2 C48_2 1_555 1_555
C49_2 C51_2 1_555 1_555
C50 C45_2 1_555 1_555
H37 C50 1_555 1_555
C51_2 C47_2 1_555 1_555
C52_2 C45_2 1_555 1_555
H38_2 C52_2 1_555 1_555
C53_2 C54_2 1_555 1_555
C54_2 C52_2 1_555 1_555
H39_2 C54_2 1_555 1_555
C55_2 C51_2 1_555 1_555
H40_2 C55_2 1_555 1_555
C56_2 C50 1_555 1_555
H41_2 C56_2 1_555 1_555
C59_2 C48_2 1_555 1_555
H42_2 C59_2 1_555 1_555
H43_2 C59_2 1_555 1_555
C61_2 C49_2 1_555 1_555
C63_2 C64_2 1_555 1_555
H46_2 C64_2 1_555 1_555
C65_2 C61_2 1_555 1_555
H47_2 C65_2 1_555 1_555
H48_2 C66_2 1_555 1_555
C15_2 C17_2 1_555 1_555
C37_2 C39_2 1_555 1_555
C53_2 C55_2 1_555 1_555
C53_2 C56_2 1_555 1_555
C59_2 C61_2 1_555 1_555
C63_2 C65_2 1_555 1_555
C63_2 C66_2 1_555 1_555
O3_2 H49_2 1_555 1_555
O20 C27_2 1_555 1_555
H21_2 C28_2 1_555 1_555
H24_2 C33_2 1_555 1_555
C34_2 C28_2 1_555 1_555
H25_2 C34_2 1_555 1_555
H31_2 C43_2 1_555 1_555
H32_2 C44_2 1_555 1_555
O5 H50_3 1_555 1_555
O8 H49_3 1_555 1_555
O5_2 H50_4 1_555 1_555
O8_2 H49_4 1_555 1_555
O13 H49_5 1_555 1_555
O13_2 H49_6 1_555 1_555
O10_2 H49_7 1_555 1_555
O3_2 H50_5 1_555 1_555
O13_2 H51_3 1_555 1_555
O15 H49_8 1_555 1_555
O8 H50_6 1_555 1_555
O3 H51_4 1_555 1_555
O15_2 H49_9 1_555 1_555
O8_2 H50_7 1_555 1_555
O5 H49_10 1_555 1_555
O13 H50_8 1_555 1_555
O5_2 H49_11 1_555 1_555
O10 H49_12 1_555 1_555
H5_2 C6_2 1_555 1_555
H37_2 C50_2 1_555 1_555
H12_2 C16_2 1_555 1_555
H28_2 C38_2 1_555 1_555

#END
