
###############################################################################
#
# This file contains modified crystal structure data generated from the
# MOF subset of the Cambridge Structural Database (CSD) v543 
# hosted by the Cambridge Crystallographic Data Centre (CCDC).
#
# This work is licensed under the Creative Commons
# Attribution-NonCommercial-ShareAlike 4.0 International License.
# To view a copy of this license, visit
# http://creativecommons.org/licenses/by-nc-sa/4.0/
# or send a letter to
# Creative Commons, PO Box 1866, Mountain View, CA 94042, USA.
#
# CIF created using the CSD Python API on 29 September 2022
# The structure has been converted into the P1 space group
# The structure has a 3D framework
# The original CSD entry ZOFKIR is in the hexagonal crystal system
# The framework has been calculated to contain at least 10.0% void space
# The void calculation uses a probe of radius 1.32A, grid spacing 0.4
# H atom positions have been added when not included in the experimental data
#
###############################################################################

data_ZOFKIR
_chemical_formula_moiety         '(C132 H120 La2 O30)n'
_symmetry_cell_setting           triclinic
_symmetry_space_group_name_H-M   'P 1'
_symmetry_Int_Tables_number      1
_space_group_name_Hall           'P 1'
loop_
_symmetry_equiv_pos_site_id
_symmetry_equiv_pos_as_xyz
1 x,y,z
_cell_length_a                   13.4027(7)
_cell_length_b                   13.4027(7)
_cell_length_c                   19.9235(5)
_cell_angle_alpha                90
_cell_angle_beta                 90
_cell_angle_gamma                120
_cell_volume                     3099.42
loop_
_atom_site_label
_atom_site_type_symbol
_atom_site_fract_x
_atom_site_fract_y
_atom_site_fract_z
O7 O 0.6458(7) 0.1180(10) 0.2500
C26 C 0.6860(7) 0.0048(11) 0.5545(3)
H19 H 0.7457 0.0463 0.5846
C29 C 0.6097(9) 0.0132(12) 0.2500
C33 C 0.6997(7) 0.0345(11) 0.4866(3)
H24 H 0.7687 0.0967 0.4718
C34 C 0.6260(7) 0.0118(10) 0.3705(3)
H25 H 0.6671 0.0912 0.3643
C43 C 0.6997(7) 0.0345(11) 0.0134(3)
H31 H 0.7687 0.0967 0.0282
C44 C 0.6260(7) 0.0118(10) 0.1295(3)
H32 H 0.6671 0.0912 0.1357
La5 La 0.6667 0.3333 0.2500
La1 La 0.3333 0.6667 0.7500
O1 O 0.3220(4) 0.5264(4) 0.6670(2)
O2 O 0.4722(7) 0.3542(7) 0.2500
O3 O 0.3056(7) 0.3565(6) 0.6890(2)
C1 C 0.3303(6) 0.4177(6) 0.5768(3)
C2 C 0.3187(6) 0.4360(6) 0.6496(3)
C3 C 0.2136(9) 0.4343(12) 0.2500
H1 H 0.1658 0.4698 0.2500
H2 H 0.1636 0.3513 0.2500
C4 C 0.3188(8) 0.3140(7) 0.5545(3)
H3 H 0.3006 0.2543 0.5846
C5 C 0.3608(6) 0.4120(6) 0.3149(3)
C6 C 0.3608(6) 0.3885(7) 0.4407(3)
C7 C 0.4035(8) 0.3903(9) 0.2500
C8 C 0.2911(6) 0.4720(7) 0.3125(3)
H4 H 0.3425 0.5547 0.3115
H5 H 0.2439 0.4533 0.3526
C9 C 0.3552(6) 0.5048(6) 0.5312(3)
H6 H 0.3617 0.5736 0.5460
C10 C 0.3707(6) 0.4912(7) 0.4639(3)
H7 H 0.3878 0.5508 0.4339
C11 C 0.3348(8) 0.3003(7) 0.4866(3)
H8 H 0.3280 0.2313 0.4718
C12 C 0.3858(7) 0.3740(7) 0.3705(3)
H9 H 0.4241 0.3329 0.3643
C16 C 0.3608(6) 0.4120(6) 0.1851(3)
C17 C 0.3608(6) 0.3885(7) 0.0593(3)
C18 C 0.2911(6) 0.4720(7) 0.1875(3)
H11 H 0.3425 0.5547 0.1885
H12 H 0.2439 0.4533 0.1474
C20 C 0.3707(6) 0.4912(7) 0.0361(3)
H14 H 0.3878 0.5508 0.0661
C21 C 0.3348(8) 0.3003(7) 0.0134(3)
H15 H 0.3280 0.2313 0.0282
C22 C 0.3858(7) 0.3740(7) 0.1295(3)
H16 H 0.4241 0.3329 0.1357
O6 O 0.4736(4) 0.7956(6) 0.6670(2)
O8 O 0.6435(6) 0.9491(9) 0.6890(2)
C23 C 0.5823(6) 0.9126(8) 0.5768(3)
C24 C 0.5640(6) 0.8827(8) 0.6496(3)
C25 C 0.5657(12) 0.7793(15) 0.2500
H17 H 0.5302 0.6960 0.2500
H18 H 0.6487 0.8123 0.2500
C27 C 0.5880(6) 0.9488(8) 0.3149(3)
C28 C 0.6115(7) 0.9723(9) 0.4407(3)
C30 C 0.5280(7) 0.8191(9) 0.3125(3)
H20 H 0.4453 0.7878 0.3115
H21 H 0.5467 0.7906 0.3526
C31 C 0.4952(6) 0.8504(8) 0.5312(3)
H22 H 0.4264 0.7881 0.5460
C32 C 0.5088(7) 0.8795(9) 0.4639(3)
H23 H 0.4492 0.8370 0.4339
C38 C 0.5880(6) 0.9488(8) 0.1851(3)
C39 C 0.6115(7) 0.9723(9) 0.0593(3)
C40 C 0.5280(7) 0.8191(9) 0.1875(3)
H27 H 0.4453 0.7878 0.1885
H28 H 0.5467 0.7906 0.1474
C42 C 0.5088(7) 0.8795(9) 0.0361(3)
H30 H 0.4492 0.8370 0.0661
O11 O 0.2044(6) 0.6780(4) 0.6670(2)
O13 O 0.0509(9) 0.6944(7) 0.6890(2)
C45 C 0.0874(8) 0.6697(6) 0.5768(3)
C46 C 0.1173(8) 0.6813(6) 0.6496(3)
C47 C 0.2207(15) 0.7864(9) 0.2500
H33 H 0.3040 0.8342 0.2500
H34 H 0.1877 0.8364 0.2500
C49 C 0.0512(8) 0.6392(6) 0.3149(3)
C50 C 0.0277(9) 0.6392(6) 0.4407(3)
C52 C 0.1809(9) 0.7089(6) 0.3125(3)
H36 H 0.2122 0.6575 0.3115
H37 H 0.2094 0.7561 0.3526
C53 C 0.1496(8) 0.6448(6) 0.5312(3)
H38 H 0.2119 0.6383 0.5460
C54 C 0.1205(9) 0.6293(6) 0.4639(3)
H39 H 0.1630 0.6122 0.4339
C60 C 0.0512(8) 0.6392(6) 0.1851(3)
C61 C 0.0277(9) 0.6392(6) 0.0593(3)
C62 C 0.1809(9) 0.7089(6) 0.1875(3)
H43 H 0.2122 0.6575 0.1885
H44 H 0.2094 0.7561 0.1474
C64 C 0.1205(9) 0.6293(6) 0.0361(3)
H46 H 0.1630 0.6122 0.0661
O16 O 0.3220(4) 0.5264(4) 0.8330(2)
O17 O 0.4736(4) 0.7956(6) 0.8330(2)
O18 O 0.2044(6) 0.6780(4) 0.8330(2)
O19 O 0.5278(7) 0.6458(7) 0.7500
O20 O 0.3542(7) 0.8820(10) 0.7500
O21 O 0.1180(10) 0.4722(7) 0.7500
H49 H 0.231027 0.325993 0.712996
O5 O 0.3056(7) 0.3565(6) 0.8110(2)
C13 C 0.3303(6) 0.4177(6) 0.9232(3)
C14 C 0.3187(6) 0.4360(6) 0.8504(3)
C15 C 0.3188(8) 0.3140(7) 0.9455(3)
H10 H 0.3006 0.2543 0.9154
C19 C 0.3552(6) 0.5048(6) 0.9688(3)
H13 H 0.3617 0.5736 0.9540
O10 O 0.6435(6) 0.9491(9) 0.8110(2)
C35 C 0.5823(6) 0.9126(8) 0.9232(3)
C36 C 0.5640(6) 0.8827(8) 0.8504(3)
C41 C 0.4952(6) 0.8504(8) 0.9688(3)
H29 H 0.4264 0.7881 0.9540
O15 O 0.0509(9) 0.6944(7) 0.8110(2)
C57 C 0.0874(8) 0.6697(6) 0.9232(3)
C58 C 0.1173(8) 0.6813(6) 0.8504(3)
C63 C 0.1496(8) 0.6448(6) 0.9688(3)
H45 H 0.2119 0.6383 0.9540
H50 H 0.612543 0.982106 0.777909
H51 H 0.0178939 0.630437 0.777909
O12 O 0.8820(10) 0.5278(7) 0.2500
C48 C 0.9952(11) 0.6812(8) 0.5545(3)
H35 H 0.9537 0.6994 0.5846
C51 C 0.9868(12) 0.5965(8) 0.2500
C55 C 0.9655(11) 0.6652(8) 0.4866(3)
H40 H 0.9033 0.6720 0.4718
C56 C 0.9882(10) 0.6142(7) 0.3705(3)
H41 H 0.9088 0.5759 0.3643
C65 C 0.9655(11) 0.6652(8) 0.0134(3)
H47 H 0.9033 0.6720 0.0282
C66 C 0.9882(10) 0.6142(7) 0.1295(3)
H48 H 0.9088 0.5759 0.1357
H49_2 H 0.674007 0.905034 0.712996
H51_2 H 0.369563 0.387457 0.777909
H49_3 H 0.094966 0.768973 0.712996
C51_2 C 0.0132(12) 0.4035(8) 0.7500
C55_2 C 0.0345(11) 0.3348(8) 0.9866(3)
H40_2 H 0.0967 0.3280 0.9718
C56_2 C 0.0118(10) 0.3858(7) 0.8705(3)
H41_2 H 0.0912 0.4241 0.8643
C59 C 0.0048(11) 0.3188(8) 0.4455(3)
H42 H 0.0463 0.3006 0.4154
C65_2 C 0.0345(11) 0.3348(8) 0.5134(3)
H47_2 H 0.0967 0.3280 0.5282
C66_2 C 0.0118(10) 0.3858(7) 0.6295(3)
H48_2 H 0.0912 0.4241 0.6357
O1_2 O 0.6780(4) 0.4736(4) 0.1670(2)
O3_2 O 0.6944(7) 0.6435(6) 0.1890(2)
C1_2 C 0.6697(6) 0.5823(6) 0.0768(3)
C2_2 C 0.6813(6) 0.5640(6) 0.1496(3)
C4_2 C 0.6812(8) 0.6860(7) 0.0545(3)
H3_2 H 0.6994 0.7457 0.0846
C9_2 C 0.6448(6) 0.4952(6) 0.0312(3)
H6_2 H 0.6383 0.4264 0.0460
O6_2 O 0.5264(4) 0.2044(6) 0.1670(2)
O8_2 O 0.3565(6) 0.0509(9) 0.1890(2)
C23_2 C 0.4177(6) 0.0874(8) 0.0768(3)
C24_2 C 0.4360(6) 0.1173(8) 0.1496(3)
C31_2 C 0.5048(6) 0.1496(8) 0.0312(3)
H22_2 H 0.5736 0.2119 0.0460
O11_2 O 0.7956(6) 0.3220(4) 0.1670(2)
O13_2 O 0.9491(9) 0.3056(7) 0.1890(2)
C45_2 C 0.9126(8) 0.3303(6) 0.0768(3)
C46_2 C 0.8827(8) 0.3187(6) 0.1496(3)
C53_2 C 0.8504(8) 0.3552(6) 0.0312(3)
H38_2 H 0.7881 0.3617 0.0460
O16_2 O 0.6780(4) 0.4736(4) 0.3330(2)
O17_2 O 0.5264(4) 0.2044(6) 0.3330(2)
O18_2 O 0.7956(6) 0.3220(4) 0.3330(2)
H49_4 H 0.768973 0.674007 0.212996
C3_2 C 0.7864(9) 0.5657(12) 0.7500
H1_2 H 0.8342 0.5302 0.7500
H2_2 H 0.8364 0.6487 0.7500
C5_2 C 0.6392(6) 0.5880(6) 0.8149(3)
C6_2 C 0.6392(6) 0.6115(7) 0.9407(3)
C7_2 C 0.5965(8) 0.6097(9) 0.7500
C8_2 C 0.7089(6) 0.5280(7) 0.8125(3)
H4_2 H 0.6575 0.4453 0.8115
H5_2 H 0.7561 0.5467 0.8526
C10_2 C 0.6293(6) 0.5088(7) 0.9639(3)
H7_2 H 0.6122 0.4492 0.9339
C11_2 C 0.6652(8) 0.6997(7) 0.9866(3)
H8_2 H 0.6720 0.7687 0.9718
C12_2 C 0.6142(7) 0.6260(7) 0.8705(3)
H9_2 H 0.5759 0.6671 0.8643
O5_2 O 0.6944(7) 0.6435(6) 0.3110(2)
C13_2 C 0.6697(6) 0.5823(6) 0.4232(3)
C14_2 C 0.6813(6) 0.5640(6) 0.3504(3)
C15_2 C 0.6812(8) 0.6860(7) 0.4455(3)
H10_2 H 0.6994 0.7457 0.4154
C16_2 C 0.6392(6) 0.5880(6) 0.6851(3)
C17_2 C 0.6392(6) 0.6115(7) 0.5593(3)
C18_2 C 0.7089(6) 0.5280(7) 0.6875(3)
H11_2 H 0.6575 0.4453 0.6885
H12_2 H 0.7561 0.5467 0.6474
C19_2 C 0.6448(6) 0.4952(6) 0.4688(3)
H13_2 H 0.6383 0.4264 0.4540
C20_2 C 0.6293(6) 0.5088(7) 0.5361(3)
H14_2 H 0.6122 0.4492 0.5661
C21_2 C 0.6652(8) 0.6997(7) 0.5134(3)
H15_2 H 0.6720 0.7687 0.5282
C22_2 C 0.6142(7) 0.6260(7) 0.6295(3)
H16_2 H 0.5759 0.6671 0.6357
C25_2 C 0.4343(12) 0.2207(15) 0.7500
H17_2 H 0.4698 0.3040 0.7500
H18_2 H 0.3513 0.1877 0.7500
C27_2 C 0.4120(6) 0.0512(8) 0.8149(3)
C28_2 C 0.3885(7) 0.0277(9) 0.9407(3)
C30_2 C 0.4720(7) 0.1809(9) 0.8125(3)
H20_2 H 0.5547 0.2122 0.8115
H21_2 H 0.4533 0.2094 0.8526
C32_2 C 0.4912(7) 0.1205(9) 0.9639(3)
H23_2 H 0.5508 0.1630 0.9339
O10_2 O 0.3565(6) 0.0509(9) 0.3110(2)
C35_2 C 0.4177(6) 0.0874(8) 0.4232(3)
C36_2 C 0.4360(6) 0.1173(8) 0.3504(3)
C38_2 C 0.4120(6) 0.0512(8) 0.6851(3)
C39_2 C 0.3885(7) 0.0277(9) 0.5593(3)
C40_2 C 0.4720(7) 0.1809(9) 0.6875(3)
H27_2 H 0.5547 0.2122 0.6885
H28_2 H 0.4533 0.2094 0.6474
C41_2 C 0.5048(6) 0.1496(8) 0.4688(3)
H29_2 H 0.5736 0.2119 0.4540
C42_2 C 0.4912(7) 0.1205(9) 0.5361(3)
H30_2 H 0.5508 0.1630 0.5661
C47_2 C 0.7793(15) 0.2136(9) 0.7500
H33_2 H 0.6960 0.1658 0.7500
H34_2 H 0.8123 0.1636 0.7500
C49_2 C 0.9488(8) 0.3608(6) 0.8149(3)
C50_2 C 0.9723(9) 0.3608(6) 0.9407(3)
C52_2 C 0.8191(9) 0.2911(6) 0.8125(3)
H36_2 H 0.7878 0.3425 0.8115
H37_2 H 0.7906 0.2439 0.8526
C54_2 C 0.8795(9) 0.3707(6) 0.9639(3)
H39_2 H 0.8370 0.3878 0.9339
O15_2 O 0.9491(9) 0.3056(7) 0.3110(2)
C57_2 C 0.9126(8) 0.3303(6) 0.4232(3)
C58_2 C 0.8827(8) 0.3187(6) 0.3504(3)
C60_2 C 0.9488(8) 0.3608(6) 0.6851(3)
C61_2 C 0.9723(9) 0.3608(6) 0.5593(3)
C62_2 C 0.8191(9) 0.2911(6) 0.6875(3)
H43_2 H 0.7878 0.3425 0.6885
H44_2 H 0.7906 0.2439 0.6474
C63_2 C 0.8504(8) 0.3552(6) 0.4688(3)
H45_2 H 0.7881 0.3617 0.4540
C64_2 C 0.8795(9) 0.3707(6) 0.5361(3)
H46_2 H 0.8370 0.3878 0.5661
H50_2 H 0.387457 0.0178939 0.277909
H51_3 H 0.982106 0.369563 0.277909
C29_2 C 0.3903(9) 0.9868(12) 0.7500
C33_2 C 0.3003(7) 0.9655(11) 0.9866(3)
H24_2 H 0.2313 0.9033 0.9718
C34_2 C 0.3740(7) 0.9882(10) 0.8705(3)
H25_2 H 0.3329 0.9088 0.8643
C37 C 0.3140(7) 0.9952(11) 0.4455(3)
H26 H 0.2543 0.9537 0.4154
C43_2 C 0.3003(7) 0.9655(11) 0.5134(3)
H31_2 H 0.2313 0.9033 0.5282
C44_2 C 0.3740(7) 0.9882(10) 0.6295(3)
H32_2 H 0.3329 0.9088 0.6357
H49_5 H 0.325993 0.094966 0.212996
H51_4 H 0.630437 0.612543 0.277909
H49_6 H 0.905034 0.231027 0.212996
H50_3 H 0.387457 0.0178939 0.222091
H51_5 H 0.982106 0.369563 0.222091
H49_7 H 0.768973 0.674007 0.287004
H51_6 H 0.630437 0.612543 0.222091
H49_8 H 0.325993 0.094966 0.287004
H49_9 H 0.905034 0.231027 0.287004
H50_4 H 0.612543 0.982106 0.722091
H51_7 H 0.0178939 0.630437 0.722091
H49_10 H 0.231027 0.325993 0.787004
H51_8 H 0.369563 0.387457 0.722091
H49_11 H 0.674007 0.905034 0.787004
H49_12 H 0.094966 0.768973 0.787004
C37_2 C 0.6860(7) 0.0048(11) 0.9455(3)
H26_2 H 0.7457 0.0463 0.9154
C59_2 C 0.9952(11) 0.6812(8) 0.9455(3)
H42_2 H 0.9537 0.6994 0.9154
C48_2 C 0.0048(11) 0.3188(8) 0.0545(3)
H35_2 H 0.0463 0.3006 0.0846
C26_2 C 0.3140(7) 0.9952(11) 0.0545(3)
H19_2 H 0.2543 0.9537 0.0846
loop_
_geom_bond_atom_site_label_1
_geom_bond_atom_site_label_2
_geom_bond_site_symmetry_1
_geom_bond_site_symmetry_2
O7 C29 1_555 1_555
H19 C26 1_555 1_555
C33 C26 1_555 1_555
H24 C33 1_555 1_555
H25 C34 1_555 1_555
H31 C43 1_555 1_555
H32 C44 1_555 1_555
La5 O7 1_555 1_555
La1 O1 1_555 1_555
O1 C2 1_555 1_555
O2 C7 1_555 1_555
O3 C2 1_555 1_555
C1 C2 1_555 1_555
C3 H1 1_555 1_555
H2 C3 1_555 1_555
C4 C1 1_555 1_555
H3 C4 1_555 1_555
C5 C7 1_555 1_555
C6 C10 1_555 1_555
C7 C16 1_555 1_555
C8 C3 1_555 1_555
H4 C8 1_555 1_555
H5 C8 1_555 1_555
C9 C1 1_555 1_555
H6 C9 1_555 1_555
C10 C9 1_555 1_555
H7 C10 1_555 1_555
C11 C4 1_555 1_555
H8 C11 1_555 1_555
C12 C5 1_555 1_555
H9 C12 1_555 1_555
C16 C18 1_555 1_555
C17 C20 1_555 1_555
C18 C3 1_555 1_555
H11 C18 1_555 1_555
H12 C18 1_555 1_555
H14 C20 1_555 1_555
H15 C21 1_555 1_555
C22 C16 1_555 1_555
H16 C22 1_555 1_555
O6 La1 1_555 1_555
O8 C24 1_555 1_555
C23 C24 1_555 1_555
C24 O6 1_555 1_555
C25 H17 1_555 1_555
H18 C25 1_555 1_555
C28 C32 1_555 1_555
C30 C25 1_555 1_555
H20 C30 1_555 1_555
H21 C30 1_555 1_555
C31 C23 1_555 1_555
H22 C31 1_555 1_555
C32 C31 1_555 1_555
H23 C32 1_555 1_555
C38 C40 1_555 1_555
C39 C42 1_555 1_555
C40 C25 1_555 1_555
H27 C40 1_555 1_555
H28 C40 1_555 1_555
H30 C42 1_555 1_555
O11 La1 1_555 1_555
O13 C46 1_555 1_555
C45 C46 1_555 1_555
C46 O11 1_555 1_555
C47 H33 1_555 1_555
H34 C47 1_555 1_555
C50 C54 1_555 1_555
C52 C47 1_555 1_555
H36 C52 1_555 1_555
H37 C52 1_555 1_555
C53 C45 1_555 1_555
H38 C53 1_555 1_555
C54 C53 1_555 1_555
H39 C54 1_555 1_555
C60 C62 1_555 1_555
C61 C64 1_555 1_555
C62 C47 1_555 1_555
H43 C62 1_555 1_555
H44 C62 1_555 1_555
H46 C64 1_555 1_555
La5 O2 1_555 1_555
O16 La1 1_555 1_555
O17 La1 1_555 1_555
O18 La1 1_555 1_555
O19 La1 1_555 1_555
O20 La1 1_555 1_555
O21 La1 1_555 1_555
C5 C8 1_555 1_555
C6 C11 1_555 1_555
C6 C12 1_555 1_555
C17 C21 1_555 1_555
C17 C22 1_555 1_555
C27 C30 1_555 1_555
C49 C52 1_555 1_555
O3 H49 1_555 1_555
O16 C14 1_555 1_555
O5 C14 1_555 1_555
C13 C14 1_555 1_555
C15 C13 1_555 1_555
H10 C15 1_555 1_555
C19 C13 1_555 1_555
H13 C19 1_555 1_555
O17 C36 1_555 1_555
O10 C36 1_555 1_555
C35 C36 1_555 1_555
C41 C35 1_555 1_555
H29 C41 1_555 1_555
O18 C58 1_555 1_555
O15 C58 1_555 1_555
C57 C58 1_555 1_555
C63 C57 1_555 1_555
H45 C63 1_555 1_555
O10 H50 1_555 1_555
O15 H51 1_555 1_555
O12 C51 1_555 1_555
H35 C48 1_555 1_555
C55 C48 1_555 1_555
H40 C55 1_555 1_555
H41 C56 1_555 1_555
H47 C65 1_555 1_555
H48 C66 1_555 1_555
La5 O12 1_555 1_555
O8 H49_2 1_555 1_555
O5 H51_2 1_555 1_555
O13 H49_3 1_555 1_555
O21 C51_2 1_555 1_555
H40_2 C55_2 1_555 1_555
H41_2 C56_2 1_555 1_555
H42 C59 1_555 1_555
C65_2 C59 1_555 1_555
H47_2 C65_2 1_555 1_555
H48_2 C66_2 1_555 1_555
La5 O1_2 1_555 1_555
O1_2 C2_2 1_555 1_555
O3_2 C2_2 1_555 1_555
C1_2 C2_2 1_555 1_555
C4_2 C1_2 1_555 1_555
H3_2 C4_2 1_555 1_555
C9_2 C1_2 1_555 1_555
H6_2 C9_2 1_555 1_555
O6_2 La5 1_555 1_555
O8_2 C24_2 1_555 1_555
C23_2 C24_2 1_555 1_555
C24_2 O6_2 1_555 1_555
C31_2 C23_2 1_555 1_555
H22_2 C31_2 1_555 1_555
O11_2 La5 1_555 1_555
O13_2 C46_2 1_555 1_555
C45_2 C46_2 1_555 1_555
C46_2 O11_2 1_555 1_555
C53_2 C45_2 1_555 1_555
H38_2 C53_2 1_555 1_555
O16_2 La5 1_555 1_555
O17_2 La5 1_555 1_555
O18_2 La5 1_555 1_555
O3_2 H49_4 1_555 1_555
O19 C7_2 1_555 1_555
C3_2 H1_2 1_555 1_555
H2_2 C3_2 1_555 1_555
C5_2 C7_2 1_555 1_555
C6_2 C10_2 1_555 1_555
C7_2 C16_2 1_555 1_555
C8_2 C3_2 1_555 1_555
H4_2 C8_2 1_555 1_555
H5_2 C8_2 1_555 1_555
H7_2 C10_2 1_555 1_555
H8_2 C11_2 1_555 1_555
C12_2 C5_2 1_555 1_555
H9_2 C12_2 1_555 1_555
O16_2 C14_2 1_555 1_555
O5_2 C14_2 1_555 1_555
C13_2 C14_2 1_555 1_555
C15_2 C13_2 1_555 1_555
H10_2 C15_2 1_555 1_555
C16_2 C18_2 1_555 1_555
C17_2 C20_2 1_555 1_555
C18_2 C3_2 1_555 1_555
H11_2 C18_2 1_555 1_555
H12_2 C18_2 1_555 1_555
C19_2 C13_2 1_555 1_555
H13_2 C19_2 1_555 1_555
C20_2 C19_2 1_555 1_555
H14_2 C20_2 1_555 1_555
C21_2 C15_2 1_555 1_555
H15_2 C21_2 1_555 1_555
C22_2 C16_2 1_555 1_555
H16_2 C22_2 1_555 1_555
C25_2 H17_2 1_555 1_555
H18_2 C25_2 1_555 1_555
C28_2 C32_2 1_555 1_555
C30_2 C25_2 1_555 1_555
H20_2 C30_2 1_555 1_555
H21_2 C30_2 1_555 1_555
H23_2 C32_2 1_555 1_555
O17_2 C36_2 1_555 1_555
O10_2 C36_2 1_555 1_555
C35_2 C36_2 1_555 1_555
C38_2 C40_2 1_555 1_555
C39_2 C42_2 1_555 1_555
C40_2 C25_2 1_555 1_555
H27_2 C40_2 1_555 1_555
H28_2 C40_2 1_555 1_555
C41_2 C35_2 1_555 1_555
H29_2 C41_2 1_555 1_555
C42_2 C41_2 1_555 1_555
H30_2 C42_2 1_555 1_555
C47_2 H33_2 1_555 1_555
H34_2 C47_2 1_555 1_555
C50_2 C54_2 1_555 1_555
C52_2 C47_2 1_555 1_555
H36_2 C52_2 1_555 1_555
H37_2 C52_2 1_555 1_555
H39_2 C54_2 1_555 1_555
O18_2 C58_2 1_555 1_555
O15_2 C58_2 1_555 1_555
C57_2 C58_2 1_555 1_555
C60_2 C62_2 1_555 1_555
C61_2 C64_2 1_555 1_555
C62_2 C47_2 1_555 1_555
H43_2 C62_2 1_555 1_555
H44_2 C62_2 1_555 1_555
C63_2 C57_2 1_555 1_555
H45_2 C63_2 1_555 1_555
C64_2 C63_2 1_555 1_555
H46_2 C64_2 1_555 1_555
C5_2 C8_2 1_555 1_555
C6_2 C11_2 1_555 1_555
C6_2 C12_2 1_555 1_555
C17_2 C21_2 1_555 1_555
C17_2 C22_2 1_555 1_555
C27_2 C30_2 1_555 1_555
C49_2 C52_2 1_555 1_555
O10_2 H50_2 1_555 1_555
O15_2 H51_3 1_555 1_555
O20 C29_2 1_555 1_555
H24_2 C33_2 1_555 1_555
H25_2 C34_2 1_555 1_555
H26 C37 1_555 1_555
C43_2 C37 1_555 1_555
H31_2 C43_2 1_555 1_555
H32_2 C44_2 1_555 1_555
O8_2 H49_5 1_555 1_555
O5_2 H51_4 1_555 1_555
O13_2 H49_6 1_555 1_555
O8_2 H50_3 1_555 1_555
O13_2 H51_5 1_555 1_555
O5_2 H49_7 1_555 1_555
O3_2 H51_6 1_555 1_555
O10_2 H49_8 1_555 1_555
O15_2 H49_9 1_555 1_555
O8 H50_4 1_555 1_555
O13 H51_7 1_555 1_555
O5 H49_10 1_555 1_555
O3 H51_8 1_555 1_555
O10 H49_11 1_555 1_555
O15 H49_12 1_555 1_555
H26_2 C37_2 1_555 1_555
H42_2 C59_2 1_555 1_555
H35_2 C48_2 1_555 1_555
H19_2 C26_2 1_555 1_555

#END
