
###############################################################################
#
# This file contains modified crystal structure data generated from the
# MOF subset of the Cambridge Structural Database (CSD) v543 
# hosted by the Cambridge Crystallographic Data Centre (CCDC).
#
# This work is licensed under the Creative Commons
# Attribution-NonCommercial-ShareAlike 4.0 International License.
# To view a copy of this license, visit
# http://creativecommons.org/licenses/by-nc-sa/4.0/
# or send a letter to
# Creative Commons, PO Box 1866, Mountain View, CA 94042, USA.
#
# CIF created using the CSD Python API on 29 September 2022
# The structure has been converted into the P1 space group
# The structure has a 3D framework
# The original CSD entry ZOFKUD is in the hexagonal crystal system
# The framework has been calculated to contain at least 10.0% void space
# The void calculation uses a probe of radius 1.32A, grid spacing 0.4
# H atom positions have been added when not included in the experimental data
#
###############################################################################

data_ZOFKUD
_chemical_formula_moiety         '(C132 H120 O30 Pr2)n'
_symmetry_cell_setting           triclinic
_symmetry_space_group_name_H-M   'P 1'
_symmetry_Int_Tables_number      1
_space_group_name_Hall           'P 1'
loop_
_symmetry_equiv_pos_site_id
_symmetry_equiv_pos_as_xyz
1 x,y,z
_cell_length_a                   13.3477(4)
_cell_length_b                   13.3477(4)
_cell_length_c                   19.9105(3)
_cell_angle_alpha                90
_cell_angle_beta                 90
_cell_angle_gamma                120
_cell_volume                     3072.03
loop_
_atom_site_label
_atom_site_type_symbol
_atom_site_fract_x
_atom_site_fract_y
_atom_site_fract_z
C20 C 0.0023(6) 0.6845(7) 0.0549(3)
H14 H 0.0436 0.7443 0.0852
O2 O 0.1185(6) 0.6479(7) 0.7500
C5 C 0.0136(9) 0.6114(9) 0.7500
C10 C 0.0023(6) 0.6845(7) 0.4451(3)
H7 H 0.0436 0.7443 0.4148
C11 C 0.0107(6) 0.6257(7) 0.6291(3)
H8 H 0.0904 0.6662 0.6352
C12 C 0.0321(7) 0.6988(8) 0.5129(3)
H9 H 0.0942 0.7684 0.5275
C21 C 0.0107(6) 0.6257(7) 0.8709(3)
H15 H 0.0904 0.6662 0.8648
C22 C 0.0321(7) 0.6988(8) 0.9871(3)
H16 H 0.0942 0.7684 0.9725
Pr5 Pr 0.3333 0.6667 0.7500
O4 O 0.7940(4) 0.4702(5) 0.16765(19)
O5 O 0.9443(5) 0.6425(6) 0.1892(2)
C13 C 0.8804(6) 0.5616(7) 0.1500(3)
C14 C 0.9105(6) 0.5805(7) 0.0769(3)
C17 C 0.8478(6) 0.4926(6) 0.0313(3)
H12 H 0.7853 0.4233 0.0459
O9 O 0.5298(5) 0.3238(6) 0.16765(19)
O10 O 0.3575(6) 0.3018(8) 0.1892(2)
C35 C 0.4384(7) 0.3188(9) 0.1500(3)
C36 C 0.4195(7) 0.3300(9) 0.0769(3)
C39 C 0.5074(6) 0.3552(8) 0.0313(3)
H28 H 0.5767 0.3620 0.0459
C42 C 0.3155(7) 0.3178(9) 0.0549(3)
H30 H 0.2557 0.2993 0.0852
O14 O 0.6762(6) 0.2060(4) 0.16765(19)
O15 O 0.6982(8) 0.0557(5) 0.1892(2)
C57 C 0.6812(9) 0.1196(6) 0.1500(3)
C58 C 0.6700(9) 0.0895(6) 0.0769(3)
C61 C 0.6448(8) 0.1522(6) 0.0313(3)
H44 H 0.6380 0.2147 0.0459
Pr2 Pr 0.6667 0.3333 0.2500
H50 H 0.38659 0.364448 0.223291
H51 H 0.635552 0.0221423 0.223291
O1 O 0.7940(4) 0.4702(5) 0.33235(19)
O3 O 0.9443(5) 0.6425(6) 0.3108(2)
C1 C 0.8804(6) 0.5616(7) 0.3500(3)
C2 C 0.9105(6) 0.5805(7) 0.4231(3)
C3 C 0.8177(6) 0.5282(7) 0.6875(3)
H1 H 0.7863 0.4451 0.6888
H2 H 0.7889 0.5464 0.6473
C4 C 0.9481(6) 0.5887(6) 0.6851(3)
C6 C 0.8478(6) 0.4926(6) 0.4687(3)
H3 H 0.7853 0.4233 0.4541
C7 C 0.7773(9) 0.5665(12) 0.7500
H4 H 0.8105 0.6498 0.7500
H5 H 0.6936 0.5308 0.7500
C8 C 0.9711(6) 0.6113(7) 0.5588(3)
C9 C 0.8780(6) 0.5075(7) 0.5355(3)
H6 H 0.8358 0.4477 0.5657
C15 C 0.8177(6) 0.5282(7) 0.8125(3)
H10 H 0.7863 0.4451 0.8112
H11 H 0.7889 0.5464 0.8527
C16 C 0.9481(6) 0.5887(6) 0.8149(3)
C18 C 0.9711(6) 0.6113(7) 0.9412(3)
C19 C 0.8780(6) 0.5075(7) 0.9645(3)
H13 H 0.8358 0.4477 0.9343
O6 O 0.5298(5) 0.3238(6) 0.33235(19)
O7 O 0.3521(7) 0.4706(9) 0.7500
O8 O 0.3575(6) 0.3018(8) 0.3108(2)
C23 C 0.4384(7) 0.3188(9) 0.3500(3)
C24 C 0.4195(7) 0.3300(9) 0.4231(3)
C25 C 0.4718(7) 0.2895(9) 0.6875(3)
H17 H 0.5549 0.3412 0.6888
H18 H 0.4536 0.2425 0.6473
C26 C 0.4113(6) 0.3594(8) 0.6851(3)
C27 C 0.3886(9) 0.4022(13) 0.7500
C28 C 0.5074(6) 0.3552(8) 0.4687(3)
H19 H 0.5767 0.3620 0.4541
C29 C 0.4335(12) 0.2108(15) 0.7500
H20 H 0.3502 0.1607 0.7500
H21 H 0.4692 0.1628 0.7500
C30 C 0.3887(7) 0.3598(9) 0.5588(3)
C31 C 0.4925(7) 0.3705(9) 0.5355(3)
H22 H 0.5523 0.3881 0.5657
C32 C 0.3155(7) 0.3178(9) 0.4451(3)
H23 H 0.2557 0.2993 0.4148
C33 C 0.3743(7) 0.3850(9) 0.6291(3)
H24 H 0.3338 0.4242 0.6352
C34 C 0.3012(8) 0.3333(11) 0.5129(3)
H25 H 0.2316 0.3258 0.5275
C37 C 0.4718(7) 0.2895(9) 0.8125(3)
H26 H 0.5549 0.3412 0.8112
H27 H 0.4536 0.2425 0.8527
C38 C 0.4113(6) 0.3594(8) 0.8149(3)
C40 C 0.3887(7) 0.3598(9) 0.9412(3)
C41 C 0.4925(7) 0.3705(9) 0.9645(3)
H29 H 0.5523 0.3881 0.9343
C43 C 0.3743(7) 0.3850(9) 0.8709(3)
H31 H 0.3338 0.4242 0.8648
C44 C 0.3012(8) 0.3333(11) 0.9871(3)
H32 H 0.2316 0.3258 0.9725
O11 O 0.6762(6) 0.2060(4) 0.33235(19)
O13 O 0.6982(8) 0.0557(5) 0.3108(2)
C45 C 0.6812(9) 0.1196(6) 0.3500(3)
C46 C 0.6700(9) 0.0895(6) 0.4231(3)
C47 C 0.7105(9) 0.1823(6) 0.6875(3)
H33 H 0.6588 0.2137 0.6888
H34 H 0.7575 0.2111 0.6473
C48 C 0.6406(8) 0.0519(6) 0.6851(3)
C50 C 0.6448(8) 0.1522(6) 0.4687(3)
H35 H 0.6380 0.2147 0.4541
C51 C 0.7892(15) 0.2227(9) 0.7500
H36 H 0.8393 0.1895 0.7500
H37 H 0.8372 0.3064 0.7500
C52 C 0.6402(9) 0.0289(6) 0.5588(3)
C53 C 0.6295(9) 0.1220(6) 0.5355(3)
H38 H 0.6119 0.1642 0.5657
C59 C 0.7105(9) 0.1823(6) 0.8125(3)
H42 H 0.6588 0.2137 0.8112
H43 H 0.7575 0.2111 0.8527
C60 C 0.6406(8) 0.0519(6) 0.8149(3)
C62 C 0.6402(9) 0.0289(6) 0.9412(3)
C63 C 0.6295(9) 0.1220(6) 0.9645(3)
H45 H 0.6119 0.1642 0.9343
O19 O 0.8815(6) 0.3521(7) 0.2500
O20 O 0.6479(7) 0.5294(9) 0.2500
O21 O 0.4706(9) 0.1185(6) 0.2500
H49 H 0.897863 0.671787 0.287964
O12 O 0.5294(9) 0.8815(6) 0.7500
C49 C 0.5978(13) 0.9864(9) 0.7500
C54 C 0.6822(9) 0.9977(6) 0.4451(3)
H39 H 0.7007 0.9564 0.4148
C55 C 0.6150(9) 0.9893(6) 0.6291(3)
H40 H 0.5758 0.9096 0.6352
C56 C 0.6667(11) 0.9679(7) 0.5129(3)
H41 H 0.6742 0.9058 0.5275
C65 C 0.6150(9) 0.9893(6) 0.8709(3)
H47 H 0.5758 0.9096 0.8648
C66 C 0.6667(11) 0.9679(7) 0.9871(3)
H48 H 0.6742 0.9058 0.9725
H51_2 H 0.977858 0.61341 0.223291
H49_2 H 0.328213 0.226075 0.287964
H49_3 H 0.773925 0.102137 0.287964
C49_2 C 0.4022(13) 0.0136(9) 0.2500
C55_2 C 0.3850(9) 0.0107(6) 0.1291(3)
H40_2 H 0.4242 0.0904 0.1352
C56_2 C 0.3333(11) 0.0321(7) 0.0129(3)
H41_2 H 0.3258 0.0942 0.0275
C64 C 0.3178(9) 0.0023(6) 0.5549(3)
H46 H 0.2993 0.0436 0.5852
C65_2 C 0.3850(9) 0.0107(6) 0.3709(3)
H47_2 H 0.4242 0.0904 0.3648
C66_2 C 0.3333(11) 0.0321(7) 0.4871(3)
H48_2 H 0.3258 0.0942 0.4725
C3_2 C 0.1823(6) 0.4718(7) 0.1875(3)
H1_2 H 0.2137 0.5549 0.1888
H2_2 H 0.2111 0.4536 0.1473
C4_2 C 0.0519(6) 0.4113(6) 0.1851(3)
C7_2 C 0.2227(9) 0.4335(12) 0.2500
H4_2 H 0.1895 0.3502 0.2500
H5_2 H 0.3064 0.4692 0.2500
C8_2 C 0.0289(6) 0.3887(7) 0.0588(3)
C9_2 C 0.1220(6) 0.4925(7) 0.0355(3)
H6_2 H 0.1642 0.5523 0.0657
O4_2 O 0.2060(4) 0.5298(5) 0.66765(19)
O5_2 O 0.0557(5) 0.3575(6) 0.6892(2)
C13_2 C 0.1196(6) 0.4384(7) 0.6500(3)
C14_2 C 0.0895(6) 0.4195(7) 0.5769(3)
C15_2 C 0.1823(6) 0.4718(7) 0.3125(3)
H10_2 H 0.2137 0.5549 0.3112
H11_2 H 0.2111 0.4536 0.3527
C16_2 C 0.0519(6) 0.4113(6) 0.3149(3)
C17_2 C 0.1522(6) 0.5074(6) 0.5313(3)
H12_2 H 0.2147 0.5767 0.5459
C18_2 C 0.0289(6) 0.3887(7) 0.4412(3)
C19_2 C 0.1220(6) 0.4925(7) 0.4645(3)
H13_2 H 0.1642 0.5523 0.4343
C25_2 C 0.5282(7) 0.7105(9) 0.1875(3)
H17_2 H 0.4451 0.6588 0.1888
H18_2 H 0.5464 0.7575 0.1473
C26_2 C 0.5887(6) 0.6406(8) 0.1851(3)
C27_2 C 0.6114(9) 0.5978(13) 0.2500
C29_2 C 0.5665(12) 0.7892(15) 0.2500
H20_2 H 0.6498 0.8393 0.2500
H21_2 H 0.5308 0.8372 0.2500
C30_2 C 0.6113(7) 0.6402(9) 0.0588(3)
C31_2 C 0.5075(7) 0.6295(9) 0.0355(3)
H22_2 H 0.4477 0.6119 0.0657
C33_2 C 0.6257(7) 0.6150(9) 0.1291(3)
H24_2 H 0.6662 0.5758 0.1352
C34_2 C 0.6988(8) 0.6667(11) 0.0129(3)
H25_2 H 0.7684 0.6742 0.0275
O9_2 O 0.4702(5) 0.6762(6) 0.66765(19)
O10_2 O 0.6425(6) 0.6982(8) 0.6892(2)
C35_2 C 0.5616(7) 0.6812(9) 0.6500(3)
C36_2 C 0.5805(7) 0.6700(9) 0.5769(3)
C37_2 C 0.5282(7) 0.7105(9) 0.3125(3)
H26_2 H 0.4451 0.6588 0.3112
H27_2 H 0.5464 0.7575 0.3527
C38_2 C 0.5887(6) 0.6406(8) 0.3149(3)
C39_2 C 0.4926(6) 0.6448(8) 0.5313(3)
H28_2 H 0.4233 0.6380 0.5459
C40_2 C 0.6113(7) 0.6402(9) 0.4412(3)
C41_2 C 0.5075(7) 0.6295(9) 0.4645(3)
H29_2 H 0.4477 0.6119 0.4343
C42_2 C 0.6845(7) 0.6822(9) 0.5549(3)
H30_2 H 0.7443 0.7007 0.5852
C43_2 C 0.6257(7) 0.6150(9) 0.3709(3)
H31_2 H 0.6662 0.5758 0.3648
C44_2 C 0.6988(8) 0.6667(11) 0.4871(3)
H32_2 H 0.7684 0.6742 0.4725
C47_2 C 0.2895(9) 0.8177(6) 0.1875(3)
H33_2 H 0.3412 0.7863 0.1888
H34_2 H 0.2425 0.7889 0.1473
C48_2 C 0.3594(8) 0.9481(6) 0.1851(3)
C51_2 C 0.2108(15) 0.7773(9) 0.2500
H36_2 H 0.1607 0.8105 0.2500
H37_2 H 0.1628 0.6936 0.2500
C52_2 C 0.3598(9) 0.9711(6) 0.0588(3)
C53_2 C 0.3705(9) 0.8780(6) 0.0355(3)
H38_2 H 0.3881 0.8358 0.0657
O14_2 O 0.3238(6) 0.7940(4) 0.66765(19)
O15_2 O 0.3018(8) 0.9443(5) 0.6892(2)
C57_2 C 0.3188(9) 0.8804(6) 0.6500(3)
C58_2 C 0.3300(9) 0.9105(6) 0.5769(3)
C59_2 C 0.2895(9) 0.8177(6) 0.3125(3)
H42_2 H 0.3412 0.7863 0.3112
H43_2 H 0.2425 0.7889 0.3527
C60_2 C 0.3594(8) 0.9481(6) 0.3149(3)
C61_2 C 0.3552(8) 0.8478(6) 0.5313(3)
H44_2 H 0.3620 0.7853 0.5459
C62_2 C 0.3598(9) 0.9711(6) 0.4412(3)
C63_2 C 0.3705(9) 0.8780(6) 0.4645(3)
H45_2 H 0.3881 0.8358 0.4343
H50_2 H 0.61341 0.635552 0.723291
H51_3 H 0.364448 0.977858 0.723291
O1_2 O 0.2060(4) 0.5298(5) 0.83235(19)
O3_2 O 0.0557(5) 0.3575(6) 0.8108(2)
C1_2 C 0.1196(6) 0.4384(7) 0.8500(3)
C2_2 C 0.0895(6) 0.4195(7) 0.9231(3)
C6_2 C 0.1522(6) 0.5074(6) 0.9687(3)
H3_2 H 0.2147 0.5767 0.9541
O6_2 O 0.4702(5) 0.6762(6) 0.83235(19)
O8_2 O 0.6425(6) 0.6982(8) 0.8108(2)
C23_2 C 0.5616(7) 0.6812(9) 0.8500(3)
C24_2 C 0.5805(7) 0.6700(9) 0.9231(3)
C28_2 C 0.4926(6) 0.6448(8) 0.9687(3)
H19_2 H 0.4233 0.6380 0.9541
C32_2 C 0.6845(7) 0.6822(9) 0.9451(3)
H23_2 H 0.7443 0.7007 0.9148
O11_2 O 0.3238(6) 0.7940(4) 0.83235(19)
O13_2 O 0.3018(8) 0.9443(5) 0.8108(2)
C45_2 C 0.3188(9) 0.8804(6) 0.8500(3)
C46_2 C 0.3300(9) 0.9105(6) 0.9231(3)
C50_2 C 0.3552(8) 0.8478(6) 0.9687(3)
H35_2 H 0.3620 0.7853 0.9541
H49_4 H 0.102137 0.328213 0.787964
C5_2 C 0.9864(9) 0.3886(9) 0.2500
C11_2 C 0.9893(6) 0.3743(7) 0.1291(3)
H8_2 H 0.9096 0.3338 0.1352
C12_2 C 0.9679(7) 0.3012(8) 0.0129(3)
H9_2 H 0.9058 0.2316 0.0275
C20_2 C 0.9977(6) 0.3155(7) 0.5549(3)
H14_2 H 0.9564 0.2557 0.5852
C21_2 C 0.9893(6) 0.3743(7) 0.3709(3)
H15_2 H 0.9096 0.3338 0.3648
C22_2 C 0.9679(7) 0.3012(8) 0.4871(3)
H16_2 H 0.9058 0.2316 0.4725
H51_4 H 0.0221423 0.38659 0.723291
H49_5 H 0.671787 0.773925 0.787964
H49_6 H 0.226075 0.897863 0.787964
H49_7 H 0.102137 0.328213 0.712036
H50_3 H 0.61341 0.635552 0.776709
H51_5 H 0.364448 0.977858 0.776709
H49_8 H 0.671787 0.773925 0.712036
H51_6 H 0.0221423 0.38659 0.776709
H49_9 H 0.226075 0.897863 0.712036
H49_10 H 0.897863 0.671787 0.212036
H50_4 H 0.38659 0.364448 0.276709
H51_7 H 0.635552 0.0221423 0.276709
H49_11 H 0.328213 0.226075 0.212036
H51_8 H 0.977858 0.61341 0.276709
H49_12 H 0.773925 0.102137 0.212036
C64_2 C 0.6822(9) 0.9977(6) 0.0549(3)
H46_2 H 0.7007 0.9564 0.0852
C54_2 C 0.3178(9) 0.0023(6) 0.9451(3)
H39_2 H 0.2993 0.0436 0.9148
C10_2 C 0.9977(6) 0.3155(7) 0.9451(3)
H7_2 H 0.9564 0.2557 0.9148
loop_
_geom_bond_atom_site_label_1
_geom_bond_atom_site_label_2
_geom_bond_site_symmetry_1
_geom_bond_site_symmetry_2
H14 C20 1_555 1_555
O2 C5 1_555 1_555
H7 C10 1_555 1_555
H8 C11 1_555 1_555
H9 C12 1_555 1_555
H15 C21 1_555 1_555
H16 C22 1_555 1_555
Pr5 O2 1_555 1_555
C10 C12 1_555 1_555
O4 C13 1_555 1_555
O5 C13 1_555 1_555
C13 C14 1_555 1_555
C14 C17 1_555 1_555
C17 H12 1_555 1_555
O9 C35 1_555 1_555
O10 C35 1_555 1_555
C35 C36 1_555 1_555
C36 C39 1_555 1_555
C39 H28 1_555 1_555
C42 C36 1_555 1_555
H30 C42 1_555 1_555
O14 C57 1_555 1_555
O15 C57 1_555 1_555
C57 C58 1_555 1_555
C58 C61 1_555 1_555
C61 H44 1_555 1_555
Pr2 O4 1_555 1_555
O9 Pr2 1_555 1_555
O14 Pr2 1_555 1_555
O10 H50 1_555 1_555
O15 H51 1_555 1_555
Pr2 O1 1_555 1_555
O1 C1 1_555 1_555
O3 C1 1_555 1_555
C1 C2 1_555 1_555
C2 C6 1_555 1_555
C3 H1 1_555 1_555
H2 C3 1_555 1_555
C4 C3 1_555 1_555
C6 H3 1_555 1_555
C7 C3 1_555 1_555
H4 C7 1_555 1_555
H5 C7 1_555 1_555
C8 C9 1_555 1_555
C9 C6 1_555 1_555
H6 C9 1_555 1_555
C15 C7 1_555 1_555
H10 C15 1_555 1_555
H11 C15 1_555 1_555
C18 C19 1_555 1_555
H13 C19 1_555 1_555
O6 Pr2 1_555 1_555
O7 C27 1_555 1_555
O8 C23 1_555 1_555
C23 O6 1_555 1_555
C24 C23 1_555 1_555
C25 H17 1_555 1_555
H18 C25 1_555 1_555
C26 C25 1_555 1_555
C27 C26 1_555 1_555
C28 C24 1_555 1_555
H19 C28 1_555 1_555
C29 C25 1_555 1_555
H20 C29 1_555 1_555
H21 C29 1_555 1_555
C30 C31 1_555 1_555
C31 C28 1_555 1_555
H22 C31 1_555 1_555
C32 C24 1_555 1_555
H23 C32 1_555 1_555
C33 C26 1_555 1_555
H24 C33 1_555 1_555
C34 C30 1_555 1_555
H25 C34 1_555 1_555
C37 C29 1_555 1_555
H26 C37 1_555 1_555
H27 C37 1_555 1_555
C38 C27 1_555 1_555
C40 C41 1_555 1_555
H29 C41 1_555 1_555
C43 C38 1_555 1_555
H31 C43 1_555 1_555
C44 C40 1_555 1_555
H32 C44 1_555 1_555
O11 Pr2 1_555 1_555
O13 C45 1_555 1_555
C45 O11 1_555 1_555
C46 C45 1_555 1_555
C47 H33 1_555 1_555
H34 C47 1_555 1_555
C48 C47 1_555 1_555
C50 C46 1_555 1_555
H35 C50 1_555 1_555
C51 C47 1_555 1_555
H36 C51 1_555 1_555
H37 C51 1_555 1_555
C52 C53 1_555 1_555
C53 C50 1_555 1_555
H38 C53 1_555 1_555
C59 C51 1_555 1_555
H42 C59 1_555 1_555
H43 C59 1_555 1_555
C62 C63 1_555 1_555
H45 C63 1_555 1_555
Pr5 O7 1_555 1_555
O19 Pr2 1_555 1_555
O20 Pr2 1_555 1_555
O21 Pr2 1_555 1_555
C15 C16 1_555 1_555
C30 C33 1_555 1_555
C32 C34 1_555 1_555
C37 C38 1_555 1_555
C40 C43 1_555 1_555
C59 C60 1_555 1_555
O3 H49 1_555 1_555
O12 C49 1_555 1_555
H39 C54 1_555 1_555
H40 C55 1_555 1_555
H41 C56 1_555 1_555
H47 C65 1_555 1_555
H48 C66 1_555 1_555
Pr5 O12 1_555 1_555
C54 C56 1_555 1_555
O5 H51_2 1_555 1_555
O8 H49_2 1_555 1_555
O13 H49_3 1_555 1_555
O21 C49_2 1_555 1_555
H40_2 C55_2 1_555 1_555
H41_2 C56_2 1_555 1_555
H46 C64 1_555 1_555
H47_2 C65_2 1_555 1_555
H48_2 C66_2 1_555 1_555
C64 C66_2 1_555 1_555
C3_2 H1_2 1_555 1_555
H2_2 C3_2 1_555 1_555
C4_2 C3_2 1_555 1_555
C7_2 C3_2 1_555 1_555
H4_2 C7_2 1_555 1_555
H5_2 C7_2 1_555 1_555
C8_2 C9_2 1_555 1_555
H6_2 C9_2 1_555 1_555
O4_2 C13_2 1_555 1_555
O5_2 C13_2 1_555 1_555
C13_2 C14_2 1_555 1_555
C14_2 C17_2 1_555 1_555
C15_2 C7_2 1_555 1_555
H10_2 C15_2 1_555 1_555
H11_2 C15_2 1_555 1_555
C17_2 H12_2 1_555 1_555
C18_2 C19_2 1_555 1_555
C19_2 C17_2 1_555 1_555
H13_2 C19_2 1_555 1_555
O20 C27_2 1_555 1_555
C25_2 H17_2 1_555 1_555
H18_2 C25_2 1_555 1_555
C26_2 C25_2 1_555 1_555
C27_2 C26_2 1_555 1_555
C29_2 C25_2 1_555 1_555
H20_2 C29_2 1_555 1_555
H21_2 C29_2 1_555 1_555
C30_2 C31_2 1_555 1_555
H22_2 C31_2 1_555 1_555
C33_2 C26_2 1_555 1_555
H24_2 C33_2 1_555 1_555
C34_2 C30_2 1_555 1_555
H25_2 C34_2 1_555 1_555
O9_2 C35_2 1_555 1_555
O10_2 C35_2 1_555 1_555
C35_2 C36_2 1_555 1_555
C36_2 C39_2 1_555 1_555
C37_2 C29_2 1_555 1_555
H26_2 C37_2 1_555 1_555
H27_2 C37_2 1_555 1_555
C38_2 C27_2 1_555 1_555
C39_2 H28_2 1_555 1_555
C40_2 C41_2 1_555 1_555
C41_2 C39_2 1_555 1_555
H29_2 C41_2 1_555 1_555
C42_2 C36_2 1_555 1_555
H30_2 C42_2 1_555 1_555
C43_2 C38_2 1_555 1_555
H31_2 C43_2 1_555 1_555
C44_2 C40_2 1_555 1_555
H32_2 C44_2 1_555 1_555
C47_2 H33_2 1_555 1_555
H34_2 C47_2 1_555 1_555
C48_2 C47_2 1_555 1_555
C51_2 C47_2 1_555 1_555
H36_2 C51_2 1_555 1_555
H37_2 C51_2 1_555 1_555
C52_2 C53_2 1_555 1_555
H38_2 C53_2 1_555 1_555
O14_2 C57_2 1_555 1_555
O15_2 C57_2 1_555 1_555
C57_2 C58_2 1_555 1_555
C58_2 C61_2 1_555 1_555
C59_2 C51_2 1_555 1_555
H42_2 C59_2 1_555 1_555
H43_2 C59_2 1_555 1_555
C61_2 H44_2 1_555 1_555
C62_2 C63_2 1_555 1_555
C63_2 C61_2 1_555 1_555
H45_2 C63_2 1_555 1_555
Pr5 O4_2 1_555 1_555
C15_2 C16_2 1_555 1_555
C30_2 C33_2 1_555 1_555
O9_2 Pr5 1_555 1_555
C37_2 C38_2 1_555 1_555
C40_2 C43_2 1_555 1_555
C42_2 C44_2 1_555 1_555
O14_2 Pr5 1_555 1_555
C59_2 C60_2 1_555 1_555
O10_2 H50_2 1_555 1_555
O15_2 H51_3 1_555 1_555
Pr5 O1_2 1_555 1_555
O1_2 C1_2 1_555 1_555
O3_2 C1_2 1_555 1_555
C1_2 C2_2 1_555 1_555
C2_2 C6_2 1_555 1_555
C6_2 H3_2 1_555 1_555
O6_2 Pr5 1_555 1_555
O8_2 C23_2 1_555 1_555
C23_2 O6_2 1_555 1_555
C24_2 C23_2 1_555 1_555
C28_2 C24_2 1_555 1_555
H19_2 C28_2 1_555 1_555
C32_2 C24_2 1_555 1_555
H23_2 C32_2 1_555 1_555
O11_2 Pr5 1_555 1_555
O13_2 C45_2 1_555 1_555
C45_2 O11_2 1_555 1_555
C46_2 C45_2 1_555 1_555
C50_2 C46_2 1_555 1_555
H35_2 C50_2 1_555 1_555
O3_2 H49_4 1_555 1_555
O19 C5_2 1_555 1_555
H8_2 C11_2 1_555 1_555
H9_2 C12_2 1_555 1_555
H14_2 C20_2 1_555 1_555
H15_2 C21_2 1_555 1_555
H16_2 C22_2 1_555 1_555
C20_2 C22_2 1_555 1_555
O5_2 H51_4 1_555 1_555
O8_2 H49_5 1_555 1_555
O13_2 H49_6 1_555 1_555
O5_2 H49_7 1_555 1_555
O8_2 H50_3 1_555 1_555
O13_2 H51_5 1_555 1_555
O10_2 H49_8 1_555 1_555
O3_2 H51_6 1_555 1_555
O15_2 H49_9 1_555 1_555
O5 H49_10 1_555 1_555
O8 H50_4 1_555 1_555
O13 H51_7 1_555 1_555
O10 H49_11 1_555 1_555
O3 H51_8 1_555 1_555
O15 H49_12 1_555 1_555
H46_2 C64_2 1_555 1_555
H39_2 C54_2 1_555 1_555
H7_2 C10_2 1_555 1_555

#END
