
###############################################################################
#
# This file contains modified crystal structure data generated from the
# MOF subset of the Cambridge Structural Database (CSD) v543 
# hosted by the Cambridge Crystallographic Data Centre (CCDC).
#
# This work is licensed under the Creative Commons
# Attribution-NonCommercial-ShareAlike 4.0 International License.
# To view a copy of this license, visit
# http://creativecommons.org/licenses/by-nc-sa/4.0/
# or send a letter to
# Creative Commons, PO Box 1866, Mountain View, CA 94042, USA.
#
# CIF created using the CSD Python API on 29 September 2022
# The structure has been converted into the P1 space group
# The structure has a 3D framework
# The original CSD entry ZOFLEO is in the hexagonal crystal system
# The framework has been calculated to contain at least 10.0% void space
# The void calculation uses a probe of radius 1.32A, grid spacing 0.4
# H atom positions have been added when not included in the experimental data
#
###############################################################################

data_ZOFLEO
_chemical_formula_moiety         '(C132 H120 O30 Sm2)n'
_symmetry_cell_setting           triclinic
_symmetry_space_group_name_H-M   'P 1'
_symmetry_Int_Tables_number      1
_space_group_name_Hall           'P 1'
loop_
_symmetry_equiv_pos_site_id
_symmetry_equiv_pos_as_xyz
1 x,y,z
_cell_length_a                   13.2973(9)
_cell_length_b                   13.2973(9)
_cell_length_c                   19.8831(4)
_cell_angle_alpha                90
_cell_angle_beta                 90
_cell_angle_gamma                120
_cell_volume                     3044.68
loop_
_atom_site_label
_atom_site_type_symbol
_atom_site_fract_x
_atom_site_fract_y
_atom_site_fract_z
C45 C 0.0304(13) 0.6992(9) 0.4877(3)
H33 H 0.0927 0.7694 0.4734
H35 H 0.0391 0.7438 0.5858
C50 C 0.0108(11) 0.6275(8) 0.3711(3)
H37 H 0.0909 0.6694 0.3650
O13 O 0.1186(11) 0.6497(8) 0.2500
C56 C 0.0142(14) 0.6145(10) 0.2500
C57 C 0.0304(13) 0.6992(9) 0.0123(3)
H42 H 0.0927 0.7694 0.0266
C62 C 0.0108(11) 0.6275(8) 0.1289(3)
H46 H 0.0909 0.6694 0.1350
Sm5 Sm 0.3334 0.6667 0.2500
Sm1 Sm 0.6667 0.3333 0.7500
O1 O 0.5337(5) 0.3258(5) 0.6684(2)
O2 O 0.3563(7) 0.2971(7) 0.6893(2)
C1 C 0.3008(9) 0.3312(9) 0.4877(3)
H1 H 0.2306 0.3233 0.4734
C2 C 0.3885(8) 0.3587(8) 0.4414(3)
C3 C 0.4940(8) 0.3706(7) 0.4642(3)
H2 H 0.5534 0.3881 0.4335
C4 C 0.3164(8) 0.3151(9) 0.5553(3)
H3 H 0.2562 0.2953 0.5858
C5 C 0.5109(8) 0.3565(7) 0.5317(3)
H4 H 0.5815 0.3657 0.5463
C6 C 0.3725(8) 0.3833(8) 0.3711(3)
H5 H 0.3306 0.4215 0.3650
C7 C 0.4214(7) 0.3283(7) 0.5773(3)
C8 C 0.4323(13) 0.2084(11) 0.2500
H6 H 0.4674 0.1596 0.2500
H7 H 0.3486 0.1587 0.2500
C9 C 0.4405(8) 0.3157(7) 0.6505(3)
C10 C 0.4104(7) 0.3578(7) 0.3152(3)
C11 C 0.4711(8) 0.2868(7) 0.3126(3)
H8 H 0.4527 0.2394 0.3527
H9 H 0.5545 0.3385 0.3112
O3 O 0.3503(8) 0.4689(8) 0.2500
C12 C 0.3855(10) 0.3997(10) 0.2500
C13 C 0.3008(9) 0.3312(9) 0.0123(3)
H10 H 0.2306 0.3233 0.0266
C14 C 0.3885(8) 0.3587(8) 0.0586(3)
C15 C 0.4940(8) 0.3706(7) 0.0358(3)
H11 H 0.5534 0.3881 0.0665
C18 C 0.3725(8) 0.3833(8) 0.1289(3)
H14 H 0.3306 0.4215 0.1350
C21 C 0.4104(7) 0.3578(7) 0.1848(3)
C22 C 0.4711(8) 0.2868(7) 0.1874(3)
H15 H 0.4527 0.2394 0.1473
H16 H 0.5545 0.3385 0.1888
O6 O 0.6742(5) 0.2079(7) 0.6684(2)
O7 O 0.7029(7) 0.0592(10) 0.6893(2)
C24 C 0.6413(8) 0.0298(11) 0.4414(3)
C25 C 0.6294(7) 0.1234(11) 0.4642(3)
H18 H 0.6119 0.1653 0.4335
C26 C 0.6849(9) 0.0013(12) 0.5553(3)
C27 C 0.6435(7) 0.1544(11) 0.5317(3)
H20 H 0.6343 0.2158 0.5463
C29 C 0.6717(7) 0.0931(10) 0.5773(3)
C30 C 0.7916(11) 0.2239(17) 0.2500
H22 H 0.8404 0.3078 0.2500
H23 H 0.8413 0.1899 0.2500
C31 C 0.6843(7) 0.1248(11) 0.6505(3)
C32 C 0.6422(7) 0.0526(10) 0.3152(3)
C33 C 0.7132(7) 0.1843(11) 0.3126(3)
H24 H 0.7606 0.2133 0.3527
H25 H 0.6615 0.2160 0.3112
C36 C 0.6413(8) 0.0298(11) 0.0586(3)
C37 C 0.6294(7) 0.1234(11) 0.0358(3)
H27 H 0.6119 0.1653 0.0665
C43 C 0.6422(7) 0.0526(10) 0.1848(3)
C44 C 0.7132(7) 0.1843(11) 0.1874(3)
H31 H 0.7606 0.2133 0.1473
H32 H 0.6615 0.2160 0.1888
O11 O 0.7921(7) 0.4663(5) 0.6684(2)
O12 O 0.9408(10) 0.6437(7) 0.6893(2)
C46 C 0.9702(11) 0.6115(8) 0.4414(3)
C47 C 0.8766(11) 0.5060(8) 0.4642(3)
H34 H 0.8347 0.4466 0.4335
C48 C 0.9987(12) 0.6836(8) 0.5553(3)
C49 C 0.8456(11) 0.4891(8) 0.5317(3)
H36 H 0.7842 0.4185 0.5463
C51 C 0.9069(10) 0.5786(7) 0.5773(3)
C52 C 0.7761(17) 0.5677(13) 0.2500
H38 H 0.6922 0.5326 0.2500
H39 H 0.8101 0.6514 0.2500
C53 C 0.8752(11) 0.5595(8) 0.6505(3)
C54 C 0.9474(10) 0.5896(7) 0.3152(3)
C55 C 0.8157(11) 0.5289(8) 0.3126(3)
H40 H 0.7867 0.5473 0.3527
H41 H 0.7840 0.4455 0.3112
C58 C 0.9702(11) 0.6115(8) 0.0586(3)
C59 C 0.8766(11) 0.5060(8) 0.0358(3)
H43 H 0.8347 0.4466 0.0665
C65 C 0.9474(10) 0.5896(7) 0.1848(3)
C66 C 0.8157(11) 0.5289(8) 0.1874(3)
H47 H 0.7867 0.5473 0.1473
H48 H 0.7840 0.4455 0.1888
O16 O 0.7921(7) 0.4663(5) 0.8316(2)
O17 O 0.5337(5) 0.3258(5) 0.8316(2)
O18 O 0.6742(5) 0.2079(7) 0.8316(2)
O19 O 0.8814(11) 0.3503(8) 0.7500
O20 O 0.6497(8) 0.5311(8) 0.7500
O21 O 0.4689(8) 0.1186(11) 0.7500
H49 H 0.382763 0.361526 0.722271
O5 O 0.3563(7) 0.2971(7) 0.8107(2)
C16 C 0.3164(8) 0.3151(9) 0.9447(3)
H12 H 0.2562 0.2953 0.9142
C17 C 0.5109(8) 0.3565(7) 0.9683(3)
H13 H 0.5815 0.3657 0.9537
C19 C 0.4214(7) 0.3283(7) 0.9227(3)
C20 C 0.4405(8) 0.3157(7) 0.8495(3)
O10 O 0.7029(7) 0.0592(10) 0.8107(2)
C38 C 0.6849(9) 0.0013(12) 0.9447(3)
C39 C 0.6435(7) 0.1544(11) 0.9683(3)
H29 H 0.6343 0.2158 0.9537
C41 C 0.6717(7) 0.0931(10) 0.9227(3)
C42 C 0.6843(7) 0.1248(11) 0.8495(3)
O15 O 0.9408(10) 0.6437(7) 0.8107(2)
C60 C 0.9987(12) 0.6836(8) 0.9447(3)
C61 C 0.8456(11) 0.4891(8) 0.9683(3)
H45 H 0.7842 0.4185 0.9537
C63 C 0.9069(10) 0.5786(7) 0.9227(3)
C64 C 0.8752(11) 0.5595(8) 0.8495(3)
H50 H 0.777293 0.106497 0.786366
H51 H 0.893503 0.670796 0.786366
C23 C 0.6688(9) 0.9696(13) 0.4877(3)
H17 H 0.6767 0.9073 0.4734
H19 H 0.7047 0.9609 0.5858
C28 C 0.6167(8) 0.9892(11) 0.3711(3)
H21 H 0.5785 0.9091 0.3650
O8 O 0.5311(8) 0.8814(11) 0.2500
C34 C 0.6003(10) 0.9858(14) 0.2500
C35 C 0.6688(9) 0.9696(13) 0.0123(3)
H26 H 0.6767 0.9073 0.0266
C40 C 0.6167(8) 0.9892(11) 0.1289(3)
H30 H 0.5785 0.9091 0.1350
C45_2 C 0.3312(16) 0.0304(13) 0.9877(3)
H33_2 H 0.3233 0.0927 0.9734
C50_2 C 0.3833(14) 0.0108(11) 0.8711(3)
H37_2 H 0.4215 0.0909 0.8650
C56_2 C 0.3997(17) 0.0142(14) 0.7500
C57_2 C 0.3312(16) 0.0304(13) 0.5123(3)
H42_2 H 0.3233 0.0927 0.5266
H44 H 0.2953 0.0391 0.4142
C62_2 C 0.3833(14) 0.0108(11) 0.6289(3)
H46_2 H 0.4215 0.0909 0.6350
O1_2 O 0.2079(7) 0.5337(5) 0.1684(2)
O2_2 O 0.0592(10) 0.3563(7) 0.1893(2)
C4_2 C 0.0013(12) 0.3164(8) 0.0553(3)
C5_2 C 0.1544(11) 0.5109(8) 0.0317(3)
H4_2 H 0.2158 0.5815 0.0463
C7_2 C 0.0931(10) 0.4214(7) 0.0773(3)
C9_2 C 0.1248(11) 0.4405(8) 0.1505(3)
O6_2 O 0.4663(9) 0.6742(5) 0.1684(2)
O7_2 O 0.6437(12) 0.7029(7) 0.1893(2)
C26_2 C 0.6836(15) 0.6849(9) 0.0553(3)
H19_2 H 0.7438 0.7047 0.0858
C27_2 C 0.4891(13) 0.6435(7) 0.0317(3)
H20_2 H 0.4185 0.6343 0.0463
C29_2 C 0.5786(12) 0.6717(7) 0.0773(3)
C31_2 C 0.5595(13) 0.6843(7) 0.1505(3)
O11_2 O 0.3258(9) 0.7921(7) 0.1684(2)
O12_2 O 0.2971(12) 0.9408(10) 0.1893(2)
C48_2 C 0.3151(14) 0.9987(12) 0.0553(3)
C49_2 C 0.3565(14) 0.8456(11) 0.0317(3)
H36_2 H 0.3657 0.7842 0.0463
C51_2 C 0.3283(12) 0.9069(10) 0.0773(3)
C53_2 C 0.3157(14) 0.8752(11) 0.1505(3)
O16_2 O 0.3258(9) 0.7921(7) 0.3316(2)
O17_2 O 0.2079(7) 0.5337(5) 0.3316(2)
O18_2 O 0.4663(9) 0.6742(5) 0.3316(2)
H49_2 H 0.0212373 0.382763 0.222271
C2_2 C 0.0298(11) 0.3885(8) 0.9414(3)
C3_2 C 0.1234(11) 0.4940(8) 0.9642(3)
H2_2 H 0.1653 0.5534 0.9335
C8_2 C 0.2239(17) 0.4323(13) 0.7500
H6_2 H 0.3078 0.4674 0.7500
H7_2 H 0.1899 0.3486 0.7500
C10_2 C 0.0526(10) 0.4104(7) 0.8152(3)
C11_2 C 0.1843(11) 0.4711(8) 0.8126(3)
H8_2 H 0.2133 0.4527 0.8527
H9_2 H 0.2160 0.5545 0.8112
O5_2 O 0.0592(10) 0.3563(7) 0.3107(2)
C14_2 C 0.0298(11) 0.3885(8) 0.5586(3)
C15_2 C 0.1234(11) 0.4940(8) 0.5358(3)
H11_2 H 0.1653 0.5534 0.5665
C16_2 C 0.0013(12) 0.3164(8) 0.4447(3)
C17_2 C 0.1544(11) 0.5109(8) 0.4683(3)
H13_2 H 0.2158 0.5815 0.4537
C19_2 C 0.0931(10) 0.4214(7) 0.4227(3)
C20_2 C 0.1248(11) 0.4405(8) 0.3495(3)
C21_2 C 0.0526(10) 0.4104(7) 0.6848(3)
C22_2 C 0.1843(11) 0.4711(8) 0.6874(3)
H15_2 H 0.2133 0.4527 0.6473
H16_2 H 0.2160 0.5545 0.6888
C23_2 C 0.6992(16) 0.6688(9) 0.9877(3)
H17_2 H 0.7694 0.6767 0.9734
C24_2 C 0.6115(14) 0.6413(8) 0.9414(3)
C25_2 C 0.5060(13) 0.6294(7) 0.9642(3)
H18_2 H 0.4466 0.6119 0.9335
C28_2 C 0.6275(14) 0.6167(8) 0.8711(3)
H21_2 H 0.6694 0.5785 0.8650
C30_2 C 0.5677(20) 0.7916(11) 0.7500
H22_2 H 0.5326 0.8404 0.7500
H23_2 H 0.6514 0.8413 0.7500
C32_2 C 0.5896(12) 0.6422(7) 0.8152(3)
C33_2 C 0.5289(13) 0.7132(7) 0.8126(3)
H24_2 H 0.5473 0.7606 0.8527
H25_2 H 0.4455 0.6615 0.8112
C34_2 C 0.6145(17) 0.6003(10) 0.7500
O10_2 O 0.6437(12) 0.7029(7) 0.3107(2)
C35_2 C 0.6992(16) 0.6688(9) 0.5123(3)
H26_2 H 0.7694 0.6767 0.5266
C36_2 C 0.6115(14) 0.6413(8) 0.5586(3)
C37_2 C 0.5060(13) 0.6294(7) 0.5358(3)
H27_2 H 0.4466 0.6119 0.5665
C38_2 C 0.6836(15) 0.6849(9) 0.4447(3)
H28 H 0.7438 0.7047 0.4142
C39_2 C 0.4891(13) 0.6435(7) 0.4683(3)
H29_2 H 0.4185 0.6343 0.4537
C40_2 C 0.6275(14) 0.6167(8) 0.6289(3)
H30_2 H 0.6694 0.5785 0.6350
C41_2 C 0.5786(12) 0.6717(7) 0.4227(3)
C42_2 C 0.5595(13) 0.6843(7) 0.3495(3)
C43_2 C 0.5896(12) 0.6422(7) 0.6848(3)
C44_2 C 0.5289(13) 0.7132(7) 0.6874(3)
H31_2 H 0.5473 0.7606 0.6473
H32_2 H 0.4455 0.6615 0.6888
C46_2 C 0.3587(14) 0.9702(11) 0.9414(3)
C47_2 C 0.3706(14) 0.8766(11) 0.9642(3)
H34_2 H 0.3881 0.8347 0.9335
C52_2 C 0.2084(21) 0.7761(17) 0.7500
H38_2 H 0.1596 0.6922 0.7500
H39_2 H 0.1587 0.8101 0.7500
C54_2 C 0.3578(12) 0.9474(10) 0.8152(3)
C55_2 C 0.2868(14) 0.8157(11) 0.8126(3)
H40_2 H 0.2394 0.7867 0.8527
H41_2 H 0.3385 0.7840 0.8112
O15_2 O 0.2971(12) 0.9408(10) 0.3107(2)
C58_2 C 0.3587(14) 0.9702(11) 0.5586(3)
C59_2 C 0.3706(14) 0.8766(11) 0.5358(3)
H43_2 H 0.3881 0.8347 0.5665
C60_2 C 0.3151(14) 0.9987(12) 0.4447(3)
C61_2 C 0.3565(14) 0.8456(11) 0.4683(3)
H45_2 H 0.3657 0.7842 0.4537
C63_2 C 0.3283(12) 0.9069(10) 0.4227(3)
C64_2 C 0.3157(14) 0.8752(11) 0.3495(3)
C65_2 C 0.3578(12) 0.9474(10) 0.6848(3)
C66_2 C 0.2868(14) 0.8157(11) 0.6874(3)
H47_2 H 0.2394 0.7867 0.6473
H48_2 H 0.3385 0.7840 0.6888
H50_2 H 0.670796 0.777293 0.286366
H51_2 H 0.222707 0.893503 0.286366
C1_2 C 0.9696(13) 0.3008(9) 0.9877(3)
H1_2 H 0.9073 0.2306 0.9734
C6_2 C 0.9892(11) 0.3725(8) 0.8711(3)
H5_2 H 0.9091 0.3306 0.8650
C12_2 C 0.9858(14) 0.3855(10) 0.7500
C13_2 C 0.9696(13) 0.3008(9) 0.5123(3)
H10_2 H 0.9073 0.2306 0.5266
H12_2 H 0.9609 0.2562 0.4142
C18_2 C 0.9892(11) 0.3725(8) 0.6289(3)
H14_2 H 0.9091 0.3306 0.6350
H49_3 H 0.638474 0.0212373 0.722271
H51_3 H 0.329204 0.222707 0.786366
H49_4 H 0.617237 0.638474 0.222271
H51_4 H 0.106497 0.329204 0.286366
H49_5 H 0.978763 0.617237 0.722271
H49_6 H 0.361526 0.978763 0.222271
H50_3 H 0.222707 0.893503 0.213634
H51_5 H 0.106497 0.329204 0.213634
H49_7 H 0.617237 0.638474 0.277729
H50_4 H 0.329204 0.222707 0.713634
H51_6 H 0.777293 0.106497 0.713634
H49_8 H 0.978763 0.617237 0.777729
H51_7 H 0.670796 0.777293 0.213634
H49_9 H 0.361526 0.978763 0.277729
H51_8 H 0.893503 0.670796 0.713634
H49_10 H 0.382763 0.361526 0.777729
H49_11 H 0.0212373 0.382763 0.277729
H49_12 H 0.638474 0.0212373 0.777729
H44_2 H 0.0391 0.7438 0.9142
H28_2 H 0.7047 0.9609 0.9142
H35_2 H 0.2953 0.0391 0.0858
H3_2 H 0.9609 0.2562 0.0858
loop_
_geom_bond_atom_site_label_1
_geom_bond_atom_site_label_2
_geom_bond_site_symmetry_1
_geom_bond_site_symmetry_2
C45 H33 1_555 1_555
H37 C50 1_555 1_555
O13 C56 1_555 1_555
C57 H42 1_555 1_555
H46 C62 1_555 1_555
Sm5 O13 1_555 1_555
Sm1 O1 1_555 1_555
O1 C9 1_555 1_555
O2 C9 1_555 1_555
C1 H1 1_555 1_555
C2 C1 1_555 1_555
C3 C2 1_555 1_555
H2 C3 1_555 1_555
C4 C1 1_555 1_555
H3 C4 1_555 1_555
C5 C3 1_555 1_555
H4 C5 1_555 1_555
C6 C2 1_555 1_555
H5 C6 1_555 1_555
C7 C4 1_555 1_555
C8 H6 1_555 1_555
H7 C8 1_555 1_555
C9 C7 1_555 1_555
C10 C6 1_555 1_555
C11 C8 1_555 1_555
H8 C11 1_555 1_555
H9 C11 1_555 1_555
O3 C12 1_555 1_555
C12 C10 1_555 1_555
C13 H10 1_555 1_555
C14 C13 1_555 1_555
C15 C14 1_555 1_555
H11 C15 1_555 1_555
C18 C14 1_555 1_555
H14 C18 1_555 1_555
C21 C12 1_555 1_555
C22 C8 1_555 1_555
H15 C22 1_555 1_555
H16 C22 1_555 1_555
O6 Sm1 1_555 1_555
O7 C31 1_555 1_555
C25 C24 1_555 1_555
H18 C25 1_555 1_555
C27 C25 1_555 1_555
H20 C27 1_555 1_555
C29 C26 1_555 1_555
C30 H22 1_555 1_555
H23 C30 1_555 1_555
C31 O6 1_555 1_555
C33 C30 1_555 1_555
H24 C33 1_555 1_555
H25 C33 1_555 1_555
C37 C36 1_555 1_555
H27 C37 1_555 1_555
C44 C30 1_555 1_555
H31 C44 1_555 1_555
H32 C44 1_555 1_555
O11 Sm1 1_555 1_555
O12 C53 1_555 1_555
C47 C46 1_555 1_555
H34 C47 1_555 1_555
C49 C47 1_555 1_555
H36 C49 1_555 1_555
C51 C48 1_555 1_555
C52 H38 1_555 1_555
H39 C52 1_555 1_555
C53 O11 1_555 1_555
C55 C52 1_555 1_555
H40 C55 1_555 1_555
H41 C55 1_555 1_555
C59 C58 1_555 1_555
H43 C59 1_555 1_555
C66 C52 1_555 1_555
H47 C66 1_555 1_555
H48 C66 1_555 1_555
Sm5 O3 1_555 1_555
O16 Sm1 1_555 1_555
O17 Sm1 1_555 1_555
O18 Sm1 1_555 1_555
O19 Sm1 1_555 1_555
O20 Sm1 1_555 1_555
O21 Sm1 1_555 1_555
C5 C7 1_555 1_555
C10 C11 1_555 1_555
C18 C21 1_555 1_555
C21 C22 1_555 1_555
C27 C29 1_555 1_555
C29 C31 1_555 1_555
C32 C33 1_555 1_555
C43 C44 1_555 1_555
C49 C51 1_555 1_555
C51 C53 1_555 1_555
C54 C55 1_555 1_555
C65 C66 1_555 1_555
O2 H49 1_555 1_555
O17 C20 1_555 1_555
O5 C20 1_555 1_555
H12 C16 1_555 1_555
H13 C17 1_555 1_555
C19 C16 1_555 1_555
C20 C19 1_555 1_555
O18 C42 1_555 1_555
O10 C42 1_555 1_555
H29 C39 1_555 1_555
C41 C38 1_555 1_555
C42 C41 1_555 1_555
O16 C64 1_555 1_555
O15 C64 1_555 1_555
H45 C61 1_555 1_555
C63 C60 1_555 1_555
C64 C63 1_555 1_555
C17 C19 1_555 1_555
C39 C41 1_555 1_555
C61 C63 1_555 1_555
O10 H50 1_555 1_555
O15 H51 1_555 1_555
C23 H17 1_555 1_555
H21 C28 1_555 1_555
O8 C34 1_555 1_555
C35 H26 1_555 1_555
H30 C40 1_555 1_555
Sm5 O8 1_555 1_555
C45_2 H33_2 1_555 1_555
H37_2 C50_2 1_555 1_555
O21 C56_2 1_555 1_555
C57_2 H42_2 1_555 1_555
H46_2 C62_2 1_555 1_555
Sm5 O1_2 1_555 1_555
O1_2 C9_2 1_555 1_555
O2_2 C9_2 1_555 1_555
H4_2 C5_2 1_555 1_555
C7_2 C4_2 1_555 1_555
C9_2 C7_2 1_555 1_555
O6_2 Sm5 1_555 1_555
O7_2 C31_2 1_555 1_555
H19_2 C26_2 1_555 1_555
H20_2 C27_2 1_555 1_555
C29_2 C26_2 1_555 1_555
C31_2 O6_2 1_555 1_555
O11_2 Sm5 1_555 1_555
O12_2 C53_2 1_555 1_555
H36_2 C49_2 1_555 1_555
C51_2 C48_2 1_555 1_555
C53_2 O11_2 1_555 1_555
O16_2 Sm5 1_555 1_555
O17_2 Sm5 1_555 1_555
O18_2 Sm5 1_555 1_555
C5_2 C7_2 1_555 1_555
C27_2 C29_2 1_555 1_555
C29_2 C31_2 1_555 1_555
C49_2 C51_2 1_555 1_555
C51_2 C53_2 1_555 1_555
O2_2 H49_2 1_555 1_555
C3_2 C2_2 1_555 1_555
H2_2 C3_2 1_555 1_555
C8_2 H6_2 1_555 1_555
H7_2 C8_2 1_555 1_555
C11_2 C8_2 1_555 1_555
H8_2 C11_2 1_555 1_555
H9_2 C11_2 1_555 1_555
O17_2 C20_2 1_555 1_555
O5_2 C20_2 1_555 1_555
C15_2 C14_2 1_555 1_555
H11_2 C15_2 1_555 1_555
C17_2 C15_2 1_555 1_555
H13_2 C17_2 1_555 1_555
C19_2 C16_2 1_555 1_555
C20_2 C19_2 1_555 1_555
C22_2 C8_2 1_555 1_555
H15_2 C22_2 1_555 1_555
H16_2 C22_2 1_555 1_555
C23_2 H17_2 1_555 1_555
C24_2 C23_2 1_555 1_555
C25_2 C24_2 1_555 1_555
H18_2 C25_2 1_555 1_555
C28_2 C24_2 1_555 1_555
H21_2 C28_2 1_555 1_555
C30_2 H22_2 1_555 1_555
H23_2 C30_2 1_555 1_555
C32_2 C28_2 1_555 1_555
C33_2 C30_2 1_555 1_555
H24_2 C33_2 1_555 1_555
H25_2 C33_2 1_555 1_555
O20 C34_2 1_555 1_555
C34_2 C32_2 1_555 1_555
O18_2 C42_2 1_555 1_555
O10_2 C42_2 1_555 1_555
C35_2 H26_2 1_555 1_555
C36_2 C35_2 1_555 1_555
C37_2 C36_2 1_555 1_555
H27_2 C37_2 1_555 1_555
C38_2 C35_2 1_555 1_555
H28 C38_2 1_555 1_555
C39_2 C37_2 1_555 1_555
H29_2 C39_2 1_555 1_555
C40_2 C36_2 1_555 1_555
H30_2 C40_2 1_555 1_555
C41_2 C38_2 1_555 1_555
C42_2 C41_2 1_555 1_555
C43_2 C34_2 1_555 1_555
C44_2 C30_2 1_555 1_555
H31_2 C44_2 1_555 1_555
H32_2 C44_2 1_555 1_555
C47_2 C46_2 1_555 1_555
H34_2 C47_2 1_555 1_555
C52_2 H38_2 1_555 1_555
H39_2 C52_2 1_555 1_555
C55_2 C52_2 1_555 1_555
H40_2 C55_2 1_555 1_555
H41_2 C55_2 1_555 1_555
O16_2 C64_2 1_555 1_555
O15_2 C64_2 1_555 1_555
C59_2 C58_2 1_555 1_555
H43_2 C59_2 1_555 1_555
C61_2 C59_2 1_555 1_555
H45_2 C61_2 1_555 1_555
C63_2 C60_2 1_555 1_555
C64_2 C63_2 1_555 1_555
C66_2 C52_2 1_555 1_555
H47_2 C66_2 1_555 1_555
H48_2 C66_2 1_555 1_555
C10_2 C11_2 1_555 1_555
C17_2 C19_2 1_555 1_555
C21_2 C22_2 1_555 1_555
C32_2 C33_2 1_555 1_555
C39_2 C41_2 1_555 1_555
C40_2 C43_2 1_555 1_555
C43_2 C44_2 1_555 1_555
C54_2 C55_2 1_555 1_555
C61_2 C63_2 1_555 1_555
C65_2 C66_2 1_555 1_555
O10_2 H50_2 1_555 1_555
O15_2 H51_2 1_555 1_555
C1_2 H1_2 1_555 1_555
H5_2 C6_2 1_555 1_555
O19 C12_2 1_555 1_555
C13_2 H10_2 1_555 1_555
H14_2 C18_2 1_555 1_555
O7 H49_3 1_555 1_555
O5 H51_3 1_555 1_555
O7_2 H49_4 1_555 1_555
O5_2 H51_4 1_555 1_555
O12 H49_5 1_555 1_555
O12_2 H49_6 1_555 1_555
O12_2 H50_3 1_555 1_555
O2_2 H51_5 1_555 1_555
O10_2 H49_7 1_555 1_555
O2 H50_4 1_555 1_555
O7 H51_6 1_555 1_555
O15 H49_8 1_555 1_555
O7_2 H51_7 1_555 1_555
O15_2 H49_9 1_555 1_555
O12 H51_8 1_555 1_555
O5 H49_10 1_555 1_555
O5_2 H49_11 1_555 1_555
O10 H49_12 1_555 1_555

#END
