
###############################################################################
#
# This file contains modified crystal structure data generated from the
# MOF subset of the Cambridge Structural Database (CSD) v543 
# hosted by the Cambridge Crystallographic Data Centre (CCDC).
#
# This work is licensed under the Creative Commons
# Attribution-NonCommercial-ShareAlike 4.0 International License.
# To view a copy of this license, visit
# http://creativecommons.org/licenses/by-nc-sa/4.0/
# or send a letter to
# Creative Commons, PO Box 1866, Mountain View, CA 94042, USA.
#
# CIF created using the CSD Python API on 29 September 2022
# The structure has been converted into the P1 space group
# The structure has a 3D framework
# The original CSD entry ZOFLAK is in the hexagonal crystal system
# The framework has been calculated to contain at least 10.0% void space
# The void calculation uses a probe of radius 1.32A, grid spacing 0.4
# H atom positions have been added when not included in the experimental data
#
###############################################################################

data_ZOFLAK
_chemical_formula_moiety         '(C132 H120 Nd2 O30)n'
_symmetry_cell_setting           triclinic
_symmetry_space_group_name_H-M   'P 1'
_symmetry_Int_Tables_number      1
_space_group_name_Hall           'P 1'
loop_
_symmetry_equiv_pos_site_id
_symmetry_equiv_pos_as_xyz
1 x,y,z
_cell_length_a                   13.3336(7)
_cell_length_b                   13.3336(7)
_cell_length_c                   19.8992(5)
_cell_angle_alpha                90
_cell_angle_beta                 90
_cell_angle_gamma                120
_cell_volume                     3063.8
loop_
_atom_site_label
_atom_site_type_symbol
_atom_site_fract_x
_atom_site_fract_y
_atom_site_fract_z
O11 O 0.2067(6) 0.6757(4) 0.66797(18)
O13 O 0.0562(9) 0.6994(7) 0.68897(19)
C45 C 0.1519(8) 0.6441(6) 0.5316(3)
H33 H 0.2135 0.6358 0.5465
C46 C 0.1224(8) 0.6292(6) 0.4638(3)
H34 H 0.1644 0.6115 0.4336
C47 C 0.1822(9) 0.7117(6) 0.3128(3)
H35 H 0.2141 0.6604 0.3122
H36 H 0.2104 0.7594 0.3528
C48 C 0.2232(14) 0.7897(9) 0.2500
H37 H 0.3070 0.8369 0.2500
H38 H 0.1910 0.8408 0.2500
C49 C 0.0296(9) 0.6409(6) 0.4412(3)
C51 C 0.1225(9) 0.6832(6) 0.6505(3)
C53 C 0.0524(8) 0.6413(6) 0.3150(2)
C54 C 0.0906(8) 0.6710(6) 0.5770(2)
C58 C 0.1224(8) 0.6292(6) 0.0362(3)
H43 H 0.1644 0.6115 0.0664
C59 C 0.1822(9) 0.7117(6) 0.1872(3)
H44 H 0.2141 0.6604 0.1878
H45 H 0.2104 0.7594 0.1472
C60 C 0.0296(9) 0.6409(6) 0.0588(3)
C62 C 0.0524(8) 0.6413(6) 0.1850(2)
Nd7 Nd 0.3334 0.6667 0.7500
C57 C 0.1519(8) 0.6441(6) 0.9684(3)
H42 H 0.2135 0.6358 0.9535
C63 C 0.0906(8) 0.6710(6) 0.9230(2)
O14 O 0.2067(6) 0.6757(4) 0.83203(18)
O15 O 0.0562(9) 0.6994(7) 0.81103(19)
C66 C 0.1225(9) 0.6832(6) 0.8495(3)
H51 H 0.0571164 0.771641 0.824313
Nd1 Nd 0.6667 0.3333 0.2500
O1 O 0.3243(4) 0.5310(4) 0.66797(18)
O2 O 0.4702(7) 0.3517(7) 0.2500
O3 O 0.3006(7) 0.3568(6) 0.68897(19)
C1 C 0.3559(6) 0.5078(6) 0.5316(3)
H1 H 0.3642 0.5777 0.5465
C2 C 0.3708(6) 0.4932(6) 0.4638(3)
H2 H 0.3885 0.5529 0.4336
C3 C 0.2883(6) 0.4705(7) 0.3128(3)
H3 H 0.3396 0.5537 0.3122
H4 H 0.2406 0.4510 0.3528
C4 C 0.2103(9) 0.4335(11) 0.2500
H5 H 0.1631 0.4701 0.2500
H6 H 0.1592 0.3502 0.2500
C5 C 0.3591(6) 0.3887(7) 0.4412(3)
C6 C 0.3851(7) 0.3733(7) 0.3710(2)
H7 H 0.4243 0.3326 0.3650
C7 C 0.3168(6) 0.4393(7) 0.6505(3)
C8 C 0.4013(8) 0.3870(9) 0.2500
C9 C 0.3587(6) 0.4111(6) 0.3150(2)
C10 C 0.3290(6) 0.4196(6) 0.5770(2)
C11 C 0.3321(8) 0.3012(7) 0.4873(3)
H8 H 0.3240 0.2312 0.4728
C12 C 0.3170(8) 0.3161(7) 0.5548(3)
H9 H 0.2987 0.2563 0.5851
C14 C 0.3708(6) 0.4932(6) 0.0362(3)
H11 H 0.3885 0.5529 0.0664
C15 C 0.2883(6) 0.4705(7) 0.1872(3)
H12 H 0.3396 0.5537 0.1878
H13 H 0.2406 0.4510 0.1472
C16 C 0.3591(6) 0.3887(7) 0.0588(3)
C17 C 0.3851(7) 0.3733(7) 0.1290(2)
H14 H 0.4243 0.3326 0.1350
C18 C 0.3587(6) 0.4111(6) 0.1850(2)
C20 C 0.3321(8) 0.3012(7) 0.0127(3)
H15 H 0.3240 0.2312 0.0272
O7 O 0.6483(7) 0.1185(10) 0.2500
C28 C 0.6267(7) 0.0118(10) 0.3710(2)
H23 H 0.6674 0.0917 0.3650
C30 C 0.6130(9) 0.0143(12) 0.2500
C33 C 0.6988(7) 0.0309(11) 0.4873(3)
H24 H 0.7688 0.0928 0.4728
C34 C 0.6839(7) 0.0009(11) 0.5548(3)
H25 H 0.7437 0.0424 0.5851
C39 C 0.6267(7) 0.0118(10) 0.1290(2)
H30 H 0.6674 0.0917 0.1350
C42 C 0.6988(7) 0.0309(11) 0.0127(3)
H31 H 0.7688 0.0928 0.0272
O12 O 0.8815(10) 0.5298(7) 0.2500
C50 C 0.9882(10) 0.6149(7) 0.3710(2)
H39 H 0.9083 0.5757 0.3650
C52 C 0.9857(12) 0.5987(8) 0.2500
C55 C 0.9691(11) 0.6679(8) 0.4873(3)
H40 H 0.9072 0.6760 0.4728
C56 C 0.9991(11) 0.6830(8) 0.5548(3)
H41 H 0.9576 0.7013 0.5851
C61 C 0.9882(10) 0.6149(7) 0.1290(2)
H46 H 0.9083 0.5757 0.1350
C64 C 0.9691(11) 0.6679(8) 0.0127(3)
H47 H 0.9072 0.6760 0.0272
O16 O 0.7933(6) 0.3243(4) 0.16797(18)
O17 O 0.6757(4) 0.4690(4) 0.16797(18)
O18 O 0.5310(4) 0.2067(6) 0.16797(18)
O19 O 0.6757(4) 0.4690(4) 0.33203(18)
O20 O 0.5310(4) 0.2067(6) 0.33203(18)
O21 O 0.7933(6) 0.3243(4) 0.33203(18)
H49 H 0.226126 0.328007 0.71327
C13 C 0.3559(6) 0.5078(6) 0.9684(3)
H10 H 0.3642 0.5777 0.9535
C19 C 0.3290(6) 0.4196(6) 0.9230(2)
C21 C 0.3170(8) 0.3161(7) 0.9452(3)
H16 H 0.2987 0.2563 0.9149
O4 O 0.3243(4) 0.5310(4) 0.83203(18)
O5 O 0.3006(7) 0.3568(6) 0.81103(19)
C22 C 0.3168(6) 0.4393(7) 0.8495(3)
C43 C 0.6839(7) 0.0009(11) 0.9452(3)
H32 H 0.7437 0.0424 0.9149
C65 C 0.9991(11) 0.6830(8) 0.9452(3)
H48 H 0.9576 0.7013 0.9149
O6 O 0.4690(4) 0.7933(6) 0.66797(18)
O8 O 0.6432(6) 0.9438(9) 0.68897(19)
C23 C 0.4922(6) 0.8481(8) 0.5316(3)
H17 H 0.4223 0.7865 0.5465
C24 C 0.5068(6) 0.8776(8) 0.4638(3)
H18 H 0.4471 0.8356 0.4336
C25 C 0.5295(7) 0.8178(9) 0.3128(3)
H19 H 0.4463 0.7859 0.3122
H20 H 0.5490 0.7896 0.3528
C26 C 0.5665(11) 0.7768(14) 0.2500
H21 H 0.5299 0.6930 0.2500
H22 H 0.6498 0.8090 0.2500
C27 C 0.6113(7) 0.9704(9) 0.4412(3)
C29 C 0.5607(7) 0.8775(9) 0.6505(3)
C31 C 0.5889(6) 0.9476(8) 0.3150(2)
C32 C 0.5804(6) 0.9094(8) 0.5770(2)
C36 C 0.5068(6) 0.8776(8) 0.0362(3)
H27 H 0.4471 0.8356 0.0664
C37 C 0.5295(7) 0.8178(9) 0.1872(3)
H28 H 0.4463 0.7859 0.1878
H29 H 0.5490 0.7896 0.1472
C38 C 0.6113(7) 0.9704(9) 0.0588(3)
C40 C 0.5889(6) 0.9476(8) 0.1850(2)
H50 H 0.671993 0.898119 0.71327
C35 C 0.4922(6) 0.8481(8) 0.9684(3)
H26 H 0.4223 0.7865 0.9535
C41 C 0.5804(6) 0.9094(8) 0.9230(2)
O9 O 0.4690(4) 0.7933(6) 0.83203(18)
O10 O 0.6432(6) 0.9438(9) 0.81103(19)
C44 C 0.5607(7) 0.8775(9) 0.8495(3)
O13_2 O 0.3568(11) 0.0562(9) 0.18897(19)
C45_2 C 0.5078(10) 0.1519(8) 0.0316(3)
H33_2 H 0.5777 0.2135 0.0465
C51_2 C 0.4393(11) 0.1225(9) 0.1505(3)
C54_2 C 0.4196(10) 0.0906(8) 0.0770(2)
C46_2 C 0.4932(10) 0.1224(8) 0.9638(3)
H34_2 H 0.5529 0.1644 0.9336
C47_2 C 0.4705(11) 0.1822(9) 0.8128(3)
H35_2 H 0.5537 0.2141 0.8122
H36_2 H 0.4510 0.2104 0.8528
C48_2 C 0.4335(17) 0.2232(14) 0.7500
H37_2 H 0.4701 0.3070 0.7500
H38_2 H 0.3502 0.1910 0.7500
C49_2 C 0.3887(11) 0.0296(9) 0.9412(3)
C53_2 C 0.4111(10) 0.0524(8) 0.8150(2)
C57_2 C 0.5078(10) 0.1519(8) 0.4684(3)
H42_2 H 0.5777 0.2135 0.4535
C58_2 C 0.4932(10) 0.1224(8) 0.5362(3)
H43_2 H 0.5529 0.1644 0.5664
C59_2 C 0.4705(11) 0.1822(9) 0.6872(3)
H44_2 H 0.5537 0.2141 0.6878
H45_2 H 0.4510 0.2104 0.6472
C60_2 C 0.3887(11) 0.0296(9) 0.5588(3)
C62_2 C 0.4111(10) 0.0524(8) 0.6850(2)
C63_2 C 0.4196(10) 0.0906(8) 0.4230(2)
O15_2 O 0.3568(11) 0.0562(9) 0.31103(19)
C66_2 C 0.4393(11) 0.1225(9) 0.3495(3)
H51_2 H 0.285476 0.0571164 0.324313
C12_2 C 0.0009(11) 0.3170(8) 0.0548(3)
H9_2 H 0.0424 0.2987 0.0851
O8_2 O 0.6994(11) 0.6432(6) 0.18897(19)
C23_2 C 0.6441(10) 0.4922(6) 0.0316(3)
H17_2 H 0.6358 0.4223 0.0465
C29_2 C 0.6832(11) 0.5607(7) 0.1505(3)
C32_2 C 0.6710(10) 0.5804(6) 0.0770(2)
C34_2 C 0.6830(13) 0.6839(7) 0.0548(3)
H25_2 H 0.7013 0.7437 0.0851
C56_2 C 0.3161(14) 0.9991(11) 0.0548(3)
H41_2 H 0.2563 0.9576 0.0851
H50_2 H 0.773874 0.671993 0.21327
O2_2 O 0.1185(10) 0.4702(7) 0.7500
C6_2 C 0.0118(10) 0.3851(7) 0.8710(2)
H7_2 H 0.0917 0.4243 0.8650
C8_2 C 0.0143(12) 0.4013(8) 0.7500
C11_2 C 0.0309(11) 0.3321(8) 0.9873(3)
H8_2 H 0.0928 0.3240 0.9728
C17_2 C 0.0118(10) 0.3851(7) 0.6290(2)
H14_2 H 0.0917 0.4243 0.6350
C20_2 C 0.0309(11) 0.3321(8) 0.5127(3)
H15_2 H 0.0928 0.3240 0.5272
C21_2 C 0.0009(11) 0.3170(8) 0.4452(3)
H16_2 H 0.0424 0.2987 0.4149
O7_2 O 0.5298(12) 0.6483(7) 0.7500
C24_2 C 0.6292(10) 0.5068(6) 0.9638(3)
H18_2 H 0.6115 0.4471 0.9336
C25_2 C 0.7117(11) 0.5295(7) 0.8128(3)
H19_2 H 0.6604 0.4463 0.8122
H20_2 H 0.7594 0.5490 0.8528
C26_2 C 0.7897(18) 0.5665(11) 0.7500
H21_2 H 0.8369 0.5299 0.7500
H22_2 H 0.8408 0.6498 0.7500
C27_2 C 0.6409(11) 0.6113(7) 0.9412(3)
C28_2 C 0.6149(12) 0.6267(7) 0.8710(2)
H23_2 H 0.5757 0.6674 0.8650
C30_2 C 0.5987(15) 0.6130(9) 0.7500
C31_2 C 0.6413(10) 0.5889(6) 0.8150(2)
C33_2 C 0.6679(13) 0.6988(7) 0.9873(3)
H24_2 H 0.6760 0.7688 0.9728
C35_2 C 0.6441(10) 0.4922(6) 0.4684(3)
H26_2 H 0.6358 0.4223 0.4535
C36_2 C 0.6292(10) 0.5068(6) 0.5362(3)
H27_2 H 0.6115 0.4471 0.5664
C37_2 C 0.7117(11) 0.5295(7) 0.6872(3)
H28_2 H 0.6604 0.4463 0.6878
H29_2 H 0.7594 0.5490 0.6472
C38_2 C 0.6409(11) 0.6113(7) 0.5588(3)
C39_2 C 0.6149(12) 0.6267(7) 0.6290(2)
H30_2 H 0.5757 0.6674 0.6350
C40_2 C 0.6413(10) 0.5889(6) 0.6850(2)
C41_2 C 0.6710(10) 0.5804(6) 0.4230(2)
C42_2 C 0.6679(13) 0.6988(7) 0.5127(3)
H31_2 H 0.6760 0.7688 0.5272
C43_2 C 0.6830(13) 0.6839(7) 0.4452(3)
H32_2 H 0.7013 0.7437 0.4149
O10_2 O 0.6994(11) 0.6432(6) 0.31103(19)
C44_2 C 0.6832(11) 0.5607(7) 0.3495(3)
O12_2 O 0.3517(12) 0.8815(10) 0.7500
C50_2 C 0.3733(12) 0.9882(10) 0.8710(2)
H39_2 H 0.3326 0.9083 0.8650
C52_2 C 0.3870(14) 0.9857(12) 0.7500
C55_2 C 0.3012(14) 0.9691(11) 0.9873(3)
H40_2 H 0.2312 0.9072 0.9728
C61_2 C 0.3733(12) 0.9882(10) 0.6290(2)
H46_2 H 0.3326 0.9083 0.6350
C64_2 C 0.3012(14) 0.9691(11) 0.5127(3)
H47_2 H 0.2312 0.9072 0.5272
C65_2 C 0.3161(14) 0.9991(11) 0.4452(3)
H48_2 H 0.2563 0.9576 0.4149
O3_2 O 0.9438(9) 0.3006(7) 0.18897(19)
C1_2 C 0.8481(8) 0.3559(6) 0.0316(3)
H1_2 H 0.7865 0.3642 0.0465
C7_2 C 0.8775(9) 0.3168(6) 0.1505(3)
C10_2 C 0.9094(8) 0.3290(6) 0.0770(2)
H49_2 H 0.898119 0.226126 0.21327
C2_2 C 0.8776(8) 0.3708(6) 0.9638(3)
H2_2 H 0.8356 0.3885 0.9336
C3_2 C 0.8178(9) 0.2883(6) 0.8128(3)
H3_2 H 0.7859 0.3396 0.8122
H4_2 H 0.7896 0.2406 0.8528
C4_2 C 0.7768(14) 0.2103(9) 0.7500
H5_2 H 0.6930 0.1631 0.7500
H6_2 H 0.8090 0.1592 0.7500
C5_2 C 0.9704(9) 0.3591(6) 0.9412(3)
C9_2 C 0.9476(8) 0.3587(6) 0.8150(2)
C13_2 C 0.8481(8) 0.3559(6) 0.4684(3)
H10_2 H 0.7865 0.3642 0.4535
C14_2 C 0.8776(8) 0.3708(6) 0.5362(3)
H11_2 H 0.8356 0.3885 0.5664
C15_2 C 0.8178(9) 0.2883(6) 0.6872(3)
H12_2 H 0.7859 0.3396 0.6878
H13_2 H 0.7896 0.2406 0.6472
C16_2 C 0.9704(9) 0.3591(6) 0.5588(3)
C18_2 C 0.9476(8) 0.3587(6) 0.6850(2)
C19_2 C 0.9094(8) 0.3290(6) 0.4230(2)
O5_2 O 0.9438(9) 0.3006(7) 0.31103(19)
C22_2 C 0.8775(9) 0.3168(6) 0.3495(3)
H50_3 H 0.101881 0.773874 0.71327
H51_3 H 0.228359 0.285476 0.824313
H50_4 H 0.328007 0.101881 0.21327
H51_4 H 0.942884 0.228359 0.324313
H51_5 H 0.714524 0.942884 0.824313
H51_6 H 0.771641 0.714524 0.324313
H50_5 H 0.328007 0.101881 0.28673
H49_3 H 0.773874 0.671993 0.28673
H51_7 H 0.942884 0.228359 0.175687
H49_4 H 0.101881 0.773874 0.78673
H50_6 H 0.226126 0.328007 0.78673
H51_8 H 0.714524 0.942884 0.675687
H51_9 H 0.771641 0.714524 0.175687
H50_7 H 0.898119 0.226126 0.28673
H51_10 H 0.0571164 0.771641 0.675687
H50_8 H 0.671993 0.898119 0.78673
H51_11 H 0.285476 0.0571164 0.175687
H51_12 H 0.228359 0.285476 0.675687
loop_
_geom_bond_atom_site_label_1
_geom_bond_atom_site_label_2
_geom_bond_site_symmetry_1
_geom_bond_site_symmetry_2
O11 C51 1_555 1_555
O13 C51 1_555 1_555
C45 H33 1_555 1_555
C46 C45 1_555 1_555
H34 C46 1_555 1_555
C47 H35 1_555 1_555
H36 C47 1_555 1_555
C48 C47 1_555 1_555
H37 C48 1_555 1_555
H38 C48 1_555 1_555
C49 C46 1_555 1_555
C51 C54 1_555 1_555
C53 C47 1_555 1_555
C54 C45 1_555 1_555
H43 C58 1_555 1_555
C59 C48 1_555 1_555
H44 C59 1_555 1_555
H45 C59 1_555 1_555
C60 C58 1_555 1_555
Nd7 O11 1_555 1_555
C59 C62 1_555 1_555
C57 H42 1_555 1_555
C63 C57 1_555 1_555
O14 C66 1_555 1_555
O15 C66 1_555 1_555
C66 C63 1_555 1_555
Nd7 O14 1_555 1_555
O15 H51 1_555 1_555
Nd1 O2 1_555 1_555
O1 C7 1_555 1_555
O2 C8 1_555 1_555
O3 C7 1_555 1_555
C1 H1 1_555 1_555
C2 C1 1_555 1_555
H2 C2 1_555 1_555
C3 H3 1_555 1_555
H4 C3 1_555 1_555
C4 C3 1_555 1_555
H5 C4 1_555 1_555
H6 C4 1_555 1_555
C5 C2 1_555 1_555
C6 C5 1_555 1_555
H7 C6 1_555 1_555
C7 C10 1_555 1_555
C8 C9 1_555 1_555
C9 C3 1_555 1_555
C10 C1 1_555 1_555
C11 C5 1_555 1_555
H8 C11 1_555 1_555
C12 C10 1_555 1_555
H9 C12 1_555 1_555
H11 C14 1_555 1_555
C15 C4 1_555 1_555
H12 C15 1_555 1_555
H13 C15 1_555 1_555
C16 C14 1_555 1_555
C17 C16 1_555 1_555
H14 C17 1_555 1_555
C18 C8 1_555 1_555
C20 C16 1_555 1_555
H15 C20 1_555 1_555
O7 Nd1 1_555 1_555
H23 C28 1_555 1_555
C30 O7 1_555 1_555
H24 C33 1_555 1_555
H25 C34 1_555 1_555
H30 C39 1_555 1_555
H31 C42 1_555 1_555
O12 Nd1 1_555 1_555
H39 C50 1_555 1_555
C52 O12 1_555 1_555
H40 C55 1_555 1_555
H41 C56 1_555 1_555
H46 C61 1_555 1_555
H47 C64 1_555 1_555
Nd7 O1 1_555 1_555
O16 Nd1 1_555 1_555
O17 Nd1 1_555 1_555
O18 Nd1 1_555 1_555
O19 Nd1 1_555 1_555
O20 Nd1 1_555 1_555
O21 Nd1 1_555 1_555
C6 C9 1_555 1_555
C11 C12 1_555 1_555
C15 C18 1_555 1_555
C17 C18 1_555 1_555
C33 C34 1_555 1_555
C55 C56 1_555 1_555
O3 H49 1_555 1_555
C13 H10 1_555 1_555
C19 C13 1_555 1_555
C21 C19 1_555 1_555
H16 C21 1_555 1_555
O4 C22 1_555 1_555
O5 C22 1_555 1_555
C22 C19 1_555 1_555
H32 C43 1_555 1_555
H48 C65 1_555 1_555
Nd7 O4 1_555 1_555
O6 C29 1_555 1_555
O8 C29 1_555 1_555
C23 H17 1_555 1_555
C24 C23 1_555 1_555
H18 C24 1_555 1_555
C25 H19 1_555 1_555
H20 C25 1_555 1_555
C26 C25 1_555 1_555
H21 C26 1_555 1_555
H22 C26 1_555 1_555
C27 C24 1_555 1_555
C29 C32 1_555 1_555
C31 C25 1_555 1_555
C32 C23 1_555 1_555
H27 C36 1_555 1_555
C37 C26 1_555 1_555
H28 C37 1_555 1_555
H29 C37 1_555 1_555
C38 C36 1_555 1_555
Nd7 O6 1_555 1_555
C37 C40 1_555 1_555
O8 H50 1_555 1_555
C35 H26 1_555 1_555
C41 C35 1_555 1_555
O9 C44 1_555 1_555
O10 C44 1_555 1_555
C44 C41 1_555 1_555
Nd7 O9 1_555 1_555
O18 C51_2 1_555 1_555
O13_2 C51_2 1_555 1_555
C45_2 H33_2 1_555 1_555
C51_2 C54_2 1_555 1_555
C54_2 C45_2 1_555 1_555
H34_2 C46_2 1_555 1_555
C47_2 H35_2 1_555 1_555
H36_2 C47_2 1_555 1_555
C48_2 C47_2 1_555 1_555
H37_2 C48_2 1_555 1_555
H38_2 C48_2 1_555 1_555
C49_2 C46_2 1_555 1_555
C53_2 C47_2 1_555 1_555
C57_2 H42_2 1_555 1_555
C58_2 C57_2 1_555 1_555
H43_2 C58_2 1_555 1_555
C59_2 C48_2 1_555 1_555
H44_2 C59_2 1_555 1_555
H45_2 C59_2 1_555 1_555
C60_2 C58_2 1_555 1_555
C63_2 C57_2 1_555 1_555
O20 C66_2 1_555 1_555
O15_2 C66_2 1_555 1_555
C66_2 C63_2 1_555 1_555
C59_2 C62_2 1_555 1_555
O15_2 H51_2 1_555 1_555
H9_2 C12_2 1_555 1_555
O17 C29_2 1_555 1_555
O8_2 C29_2 1_555 1_555
C23_2 H17_2 1_555 1_555
C29_2 C32_2 1_555 1_555
C32_2 C23_2 1_555 1_555
C34_2 C32_2 1_555 1_555
H25_2 C34_2 1_555 1_555
H41_2 C56_2 1_555 1_555
O8_2 H50_2 1_555 1_555
Nd7 O2_2 1_555 1_555
O2_2 C8_2 1_555 1_555
H7_2 C6_2 1_555 1_555
H8_2 C11_2 1_555 1_555
H14_2 C17_2 1_555 1_555
H15_2 C20_2 1_555 1_555
H16_2 C21_2 1_555 1_555
O7_2 Nd7 1_555 1_555
H18_2 C24_2 1_555 1_555
C25_2 H19_2 1_555 1_555
H20_2 C25_2 1_555 1_555
C26_2 C25_2 1_555 1_555
H21_2 C26_2 1_555 1_555
H22_2 C26_2 1_555 1_555
C27_2 C24_2 1_555 1_555
C28_2 C27_2 1_555 1_555
H23_2 C28_2 1_555 1_555
C30_2 O7_2 1_555 1_555
C31_2 C25_2 1_555 1_555
C33_2 C27_2 1_555 1_555
H24_2 C33_2 1_555 1_555
C35_2 H26_2 1_555 1_555
C36_2 C35_2 1_555 1_555
H27_2 C36_2 1_555 1_555
C37_2 C26_2 1_555 1_555
H28_2 C37_2 1_555 1_555
H29_2 C37_2 1_555 1_555
C38_2 C36_2 1_555 1_555
C39_2 C38_2 1_555 1_555
H30_2 C39_2 1_555 1_555
C40_2 C30_2 1_555 1_555
C41_2 C35_2 1_555 1_555
C42_2 C38_2 1_555 1_555
H31_2 C42_2 1_555 1_555
C43_2 C41_2 1_555 1_555
H32_2 C43_2 1_555 1_555
O19 C44_2 1_555 1_555
O10_2 C44_2 1_555 1_555
C44_2 C41_2 1_555 1_555
O12_2 Nd7 1_555 1_555
H39_2 C50_2 1_555 1_555
C52_2 O12_2 1_555 1_555
H40_2 C55_2 1_555 1_555
H46_2 C61_2 1_555 1_555
H47_2 C64_2 1_555 1_555
H48_2 C65_2 1_555 1_555
C20_2 C21_2 1_555 1_555
C28_2 C31_2 1_555 1_555
C30_2 C31_2 1_555 1_555
C37_2 C40_2 1_555 1_555
C39_2 C40_2 1_555 1_555
C42_2 C43_2 1_555 1_555
C64_2 C65_2 1_555 1_555
O16 C7_2 1_555 1_555
O3_2 C7_2 1_555 1_555
C1_2 H1_2 1_555 1_555
C7_2 C10_2 1_555 1_555
C10_2 C1_2 1_555 1_555
O3_2 H49_2 1_555 1_555
H2_2 C2_2 1_555 1_555
C3_2 H3_2 1_555 1_555
H4_2 C3_2 1_555 1_555
C4_2 C3_2 1_555 1_555
H5_2 C4_2 1_555 1_555
H6_2 C4_2 1_555 1_555
C5_2 C2_2 1_555 1_555
C9_2 C3_2 1_555 1_555
C13_2 H10_2 1_555 1_555
C14_2 C13_2 1_555 1_555
H11_2 C14_2 1_555 1_555
C15_2 C4_2 1_555 1_555
H12_2 C15_2 1_555 1_555
H13_2 C15_2 1_555 1_555
C16_2 C14_2 1_555 1_555
C19_2 C13_2 1_555 1_555
O21 C22_2 1_555 1_555
O5_2 C22_2 1_555 1_555
C22_2 C19_2 1_555 1_555
C15_2 C18_2 1_555 1_555
O13 H50_3 1_555 1_555
O5 H51_3 1_555 1_555
O13_2 H50_4 1_555 1_555
O5_2 H51_4 1_555 1_555
O10 H51_5 1_555 1_555
O10_2 H51_6 1_555 1_555
O15_2 H50_5 1_555 1_555
O10_2 H49_3 1_555 1_555
O3_2 H51_7 1_555 1_555
O15 H49_4 1_555 1_555
O5 H50_6 1_555 1_555
O8 H51_8 1_555 1_555
O8_2 H51_9 1_555 1_555
O5_2 H50_7 1_555 1_555
O13 H51_10 1_555 1_555
O10 H50_8 1_555 1_555
O13_2 H51_11 1_555 1_555
O3 H51_12 1_555 1_555

#END
