
###############################################################################
#
# This file contains modified crystal structure data generated from the
# MOF subset of the Cambridge Structural Database (CSD) v543 
# hosted by the Cambridge Crystallographic Data Centre (CCDC).
#
# This work is licensed under the Creative Commons
# Attribution-NonCommercial-ShareAlike 4.0 International License.
# To view a copy of this license, visit
# http://creativecommons.org/licenses/by-nc-sa/4.0/
# or send a letter to
# Creative Commons, PO Box 1866, Mountain View, CA 94042, USA.
#
# CIF created using the CSD Python API on 29 September 2022
# The structure has been converted into the P1 space group
# The structure has a 3D framework
# The original CSD entry ZOFLIS is in the hexagonal crystal system
# The framework has been calculated to contain at least 10.0% void space
# The void calculation uses a probe of radius 1.32A, grid spacing 0.4
# H atom positions have been added when not included in the experimental data
#
###############################################################################

data_ZOFLIS
_chemical_formula_moiety         '(C132 H120 Eu2 O30)n'
_symmetry_cell_setting           triclinic
_symmetry_space_group_name_H-M   'P 1'
_symmetry_Int_Tables_number      1
_space_group_name_Hall           'P 1'
loop_
_symmetry_equiv_pos_site_id
_symmetry_equiv_pos_as_xyz
1 x,y,z
_cell_length_a                   13.1818(2)
_cell_length_b                   13.1818(2)
_cell_length_c                   19.8894(2)
_cell_angle_alpha                90
_cell_angle_beta                 90
_cell_angle_gamma                120
_cell_volume                     2992.97
loop_
_atom_site_label
_atom_site_type_symbol
_atom_site_fract_x
_atom_site_fract_y
_atom_site_fract_z
H10 H 0.2864 0.0361 0.0850
O2 O 0.4647(3) 0.1187(3) 0.7500
H1 H 0.2864 0.0361 0.4150
C6 C 0.3967(4) 0.0122(4) 0.7500
C10 C 0.3814(3) 0.0104(3) 0.62885(14)
H6 H 0.4199 0.0912 0.6347
C12 C 0.3247(3) 0.0279(3) 0.51245(15)
H9 H 0.3141 0.0890 0.5271
C20 C 0.3814(3) 0.0104(3) 0.87115(14)
H13 H 0.4199 0.0912 0.8653
C22 C 0.3247(3) 0.0279(3) 0.98755(15)
H16 H 0.3141 0.0890 0.9729
Eu5 Eu 0.6667 0.3333 0.7500
O4 O 0.32813(19) 0.79386(19) 0.16885(10)
O5 O 0.2918(3) 0.9384(2) 0.18914(11)
C13 C 0.3153(3) 0.8762(3) 0.15060(14)
C15 C 0.3269(2) 0.9070(2) 0.07744(13)
C16 C 0.3089(3) 0.9970(3) 0.05493(16)
C18 C 0.3575(3) 0.8474(2) 0.03199(14)
H11 H 0.3690 0.7870 0.0470
O9 O 0.20614(19) 0.53427(27) 0.16885(10)
O10 O 0.0616(2) 0.3534(4) 0.18914(11)
C35 C 0.1238(3) 0.4391(4) 0.15060(14)
C37 C 0.0930(2) 0.4199(3) 0.07744(13)
C38 C 0.0030(3) 0.3119(4) 0.05493(16)
C40 C 0.1526(2) 0.5101(4) 0.03199(14)
H27 H 0.2130 0.5820 0.0470
O14 O 0.46573(27) 0.67187(19) 0.16885(10)
O15 O 0.6466(4) 0.7082(3) 0.18914(11)
C57 C 0.5609(4) 0.6847(3) 0.15060(14)
C59 C 0.5801(3) 0.6731(2) 0.07744(13)
C60 C 0.6881(4) 0.6911(3) 0.05493(16)
H42 H 0.7497 0.7136 0.0850
C62 C 0.4899(4) 0.6425(3) 0.03199(14)
H43 H 0.4180 0.6310 0.0470
Eu2 Eu 0.3333 0.6667 0.2500
H50 H 0.62243 0.645068 0.223134
H51 H 0.0226373 0.37757 0.223134
O1 O 0.32813(19) 0.79386(19) 0.33115(10)
O3 O 0.2918(3) 0.9384(2) 0.31086(11)
C1 C 0.3153(3) 0.8762(3) 0.34940(14)
C2 C 0.3554(3) 0.9461(2) 0.68518(13)
C3 C 0.3269(2) 0.9070(2) 0.42256(13)
C4 C 0.3089(3) 0.9970(3) 0.44507(16)
C5 C 0.3564(3) 0.9684(3) 0.55900(14)
C7 C 0.3575(3) 0.8474(2) 0.46801(14)
H2 H 0.3690 0.7870 0.4530
C8 C 0.3714(3) 0.8767(3) 0.53573(14)
H3 H 0.3908 0.8351 0.5658
C9 C 0.2071(4) 0.7736(4) 0.7500
H4 H 0.1601 0.6887 0.7500
H5 H 0.1544 0.8050 0.7500
C11 C 0.2833(3) 0.8144(3) 0.68747(14)
H7 H 0.3349 0.7817 0.6872
H8 H 0.2340 0.7862 0.6478
C14 C 0.3554(3) 0.9461(2) 0.81482(13)
C17 C 0.3564(3) 0.9684(3) 0.94100(14)
C19 C 0.3714(3) 0.8767(3) 0.96427(14)
H12 H 0.3908 0.8351 0.9342
C21 C 0.2833(3) 0.8144(3) 0.81253(14)
H14 H 0.3349 0.7817 0.8128
H15 H 0.2340 0.7862 0.8522
O6 O 0.20614(19) 0.53427(27) 0.33115(10)
O8 O 0.0616(2) 0.3534(4) 0.31086(11)
C23 C 0.1238(3) 0.4391(4) 0.34940(14)
C24 C 0.0539(2) 0.4093(4) 0.68518(13)
C25 C 0.0930(2) 0.4199(3) 0.42256(13)
C26 C 0.0030(3) 0.3119(4) 0.44507(16)
C27 C 0.0316(3) 0.3880(4) 0.55900(14)
C29 C 0.1526(2) 0.5101(4) 0.46801(14)
H18 H 0.2130 0.5820 0.4530
C30 C 0.1233(3) 0.4947(4) 0.53573(14)
H19 H 0.1649 0.5557 0.5658
C31 C 0.2264(4) 0.4335(6) 0.7500
H20 H 0.3113 0.4714 0.7500
H21 H 0.1950 0.3494 0.7500
C33 C 0.1856(3) 0.4689(4) 0.68747(14)
H23 H 0.2183 0.5532 0.6872
H24 H 0.2138 0.4478 0.6478
C36 C 0.0539(2) 0.4093(4) 0.81482(13)
C39 C 0.0316(3) 0.3880(4) 0.94100(14)
C41 C 0.1233(3) 0.4947(4) 0.96427(14)
H28 H 0.1649 0.5557 0.9342
C43 C 0.1856(3) 0.4689(4) 0.81253(14)
H30 H 0.2183 0.5532 0.8128
H31 H 0.2138 0.4478 0.8522
O11 O 0.46573(27) 0.67187(19) 0.33115(10)
O12 O 0.6540(4) 0.5353(3) 0.7500
O13 O 0.6466(4) 0.7082(3) 0.31086(11)
C45 C 0.5609(4) 0.6847(3) 0.34940(14)
C46 C 0.5907(4) 0.6446(3) 0.68518(13)
C47 C 0.5801(3) 0.6731(2) 0.42256(13)
C48 C 0.6881(4) 0.6911(3) 0.44507(16)
H33 H 0.7497 0.7136 0.4150
C49 C 0.6120(4) 0.6436(3) 0.55900(14)
C50 C 0.6155(6) 0.6033(4) 0.7500
C51 C 0.4899(4) 0.6425(3) 0.46801(14)
H34 H 0.4180 0.6310 0.4530
C52 C 0.5053(4) 0.6286(3) 0.53573(14)
H35 H 0.4443 0.6092 0.5658
C53 C 0.5665(6) 0.7929(4) 0.7500
H36 H 0.5286 0.8399 0.7500
H37 H 0.6506 0.8456 0.7500
C54 C 0.6290(4) 0.6186(3) 0.62885(14)
H38 H 0.6713 0.5801 0.6347
C55 C 0.5311(4) 0.7167(3) 0.68747(14)
H39 H 0.4468 0.6651 0.6872
H40 H 0.5522 0.7660 0.6478
C56 C 0.7032(4) 0.6753(3) 0.51245(15)
H41 H 0.7749 0.6859 0.5271
C58 C 0.5907(4) 0.6446(3) 0.81482(13)
C61 C 0.6120(4) 0.6436(3) 0.94100(14)
C63 C 0.5053(4) 0.6286(3) 0.96427(14)
H44 H 0.4443 0.6092 0.9342
C64 C 0.6290(4) 0.6186(3) 0.87115(14)
H45 H 0.6713 0.5801 0.8653
C65 C 0.5311(4) 0.7167(3) 0.81253(14)
H46 H 0.4468 0.6651 0.8128
H47 H 0.5522 0.7660 0.8522
C66 C 0.7032(4) 0.6753(3) 0.98755(15)
H48 H 0.7749 0.6859 0.9729
O19 O 0.5353(3) 0.8813(3) 0.2500
O20 O 0.1187(3) 0.6540(4) 0.2500
O21 O 0.3460(4) 0.4647(3) 0.2500
H49 H 0.216099 0.887791 0.287768
O7 O 0.8813(3) 0.3460(4) 0.7500
H17 H 0.9639 0.2503 0.4150
C28 C 0.9878(4) 0.3845(6) 0.7500
C32 C 0.9896(3) 0.3710(4) 0.62885(14)
H22 H 0.9088 0.3287 0.6347
C34 C 0.9721(3) 0.2968(4) 0.51245(15)
H25 H 0.9110 0.2251 0.5271
C42 C 0.9896(3) 0.3710(4) 0.87115(14)
H29 H 0.9088 0.3287 0.8653
C44 C 0.9721(3) 0.2968(4) 0.98755(15)
H32 H 0.9110 0.2251 0.9729
H50_2 H 0.354932 0.977363 0.223134
H49_2 H 0.112209 0.328308 0.287768
H49_3 H 0.671692 0.783901 0.287768
C28_2 C 0.0122(4) 0.6155(6) 0.2500
C32_2 C 0.0104(3) 0.6290(4) 0.12885(14)
H22_2 H 0.0912 0.6713 0.1347
C34_2 C 0.0279(3) 0.7032(4) 0.01245(15)
H25_2 H 0.0890 0.7749 0.0271
H26 H 0.0361 0.7497 0.5850
C42_2 C 0.0104(3) 0.6290(4) 0.37115(14)
H29_2 H 0.0912 0.6713 0.3653
C44_2 C 0.0279(3) 0.7032(4) 0.48755(15)
H32_2 H 0.0890 0.7749 0.4729
C2_2 C 0.6446(3) 0.0539(2) 0.18518(13)
C5_2 C 0.6436(3) 0.0316(3) 0.05900(14)
C8_2 C 0.6286(3) 0.1233(3) 0.03573(14)
H3_2 H 0.6092 0.1649 0.0658
C9_2 C 0.7929(4) 0.2264(4) 0.2500
H4_2 H 0.8399 0.3113 0.2500
H5_2 H 0.8456 0.1950 0.2500
C11_2 C 0.7167(3) 0.1856(3) 0.18747(14)
H7_2 H 0.6651 0.2183 0.1872
H8_2 H 0.7660 0.2138 0.1478
O4_2 O 0.67187(19) 0.20614(19) 0.66885(10)
O5_2 O 0.7082(3) 0.0616(2) 0.68914(11)
C13_2 C 0.6847(3) 0.1238(3) 0.65060(14)
C14_2 C 0.6446(3) 0.0539(2) 0.31482(13)
C15_2 C 0.6731(2) 0.0930(2) 0.57744(13)
C16_2 C 0.6911(3) 0.0030(3) 0.55493(16)
C17_2 C 0.6436(3) 0.0316(3) 0.44100(14)
C18_2 C 0.6425(3) 0.1526(2) 0.53199(14)
H11_2 H 0.6310 0.2130 0.5470
C19_2 C 0.6286(3) 0.1233(3) 0.46427(14)
H12_2 H 0.6092 0.1649 0.4342
C21_2 C 0.7167(3) 0.1856(3) 0.31253(14)
H14_2 H 0.6651 0.2183 0.3128
H15_2 H 0.7660 0.2138 0.3522
C24_2 C 0.9461(2) 0.5907(4) 0.18518(13)
C27_2 C 0.9684(3) 0.6120(4) 0.05900(14)
C30_2 C 0.8767(3) 0.5053(4) 0.03573(14)
H19_2 H 0.8351 0.4443 0.0658
C31_2 C 0.7736(4) 0.5665(6) 0.2500
H20_2 H 0.6887 0.5286 0.2500
H21_2 H 0.8050 0.6506 0.2500
C33_2 C 0.8144(3) 0.5311(4) 0.18747(14)
H23_2 H 0.7817 0.4468 0.1872
H24_2 H 0.7862 0.5522 0.1478
O9_2 O 0.79386(19) 0.46573(27) 0.66885(10)
O10_2 O 0.9384(2) 0.6466(4) 0.68914(11)
C35_2 C 0.8762(3) 0.5609(4) 0.65060(14)
C36_2 C 0.9461(2) 0.5907(4) 0.31482(13)
C37_2 C 0.9070(2) 0.5801(3) 0.57744(13)
C38_2 C 0.9970(3) 0.6881(4) 0.55493(16)
C39_2 C 0.9684(3) 0.6120(4) 0.44100(14)
C40_2 C 0.8474(2) 0.4899(4) 0.53199(14)
H27_2 H 0.7870 0.4180 0.5470
C41_2 C 0.8767(3) 0.5053(4) 0.46427(14)
H28_2 H 0.8351 0.4443 0.4342
C43_2 C 0.8144(3) 0.5311(4) 0.31253(14)
H30_2 H 0.7817 0.4468 0.3128
H31_2 H 0.7862 0.5522 0.3522
C46_2 C 0.4093(4) 0.3554(3) 0.18518(13)
C49_2 C 0.3880(4) 0.3564(3) 0.05900(14)
C50_2 C 0.3845(6) 0.3967(4) 0.2500
C52_2 C 0.4947(4) 0.3714(3) 0.03573(14)
H35_2 H 0.5557 0.3908 0.0658
C53_2 C 0.4335(6) 0.2071(4) 0.2500
H36_2 H 0.4714 0.1601 0.2500
H37_2 H 0.3494 0.1544 0.2500
C54_2 C 0.3710(4) 0.3814(3) 0.12885(14)
H38_2 H 0.3287 0.4199 0.1347
C55_2 C 0.4689(4) 0.2833(3) 0.18747(14)
H39_2 H 0.5532 0.3349 0.1872
H40_2 H 0.4478 0.2340 0.1478
C56_2 C 0.2968(4) 0.3247(3) 0.01245(15)
H41_2 H 0.2251 0.3141 0.0271
O14_2 O 0.53427(27) 0.32813(19) 0.66885(10)
O15_2 O 0.3534(4) 0.2918(3) 0.68914(11)
C57_2 C 0.4391(4) 0.3153(3) 0.65060(14)
C58_2 C 0.4093(4) 0.3554(3) 0.31482(13)
C59_2 C 0.4199(3) 0.3269(2) 0.57744(13)
C60_2 C 0.3119(4) 0.3089(3) 0.55493(16)
H42_2 H 0.2503 0.2864 0.5850
C61_2 C 0.3880(4) 0.3564(3) 0.44100(14)
C62_2 C 0.5101(4) 0.3575(3) 0.53199(14)
H43_2 H 0.5820 0.3690 0.5470
C63_2 C 0.4947(4) 0.3714(3) 0.46427(14)
H44_2 H 0.5557 0.3908 0.4342
C64_2 C 0.3710(4) 0.3814(3) 0.37115(14)
H45_2 H 0.3287 0.4199 0.3653
C65_2 C 0.4689(4) 0.2833(3) 0.31253(14)
H46_2 H 0.5532 0.3349 0.3128
H47_2 H 0.4478 0.2340 0.3522
C66_2 C 0.2968(4) 0.3247(3) 0.48755(15)
H48_2 H 0.2251 0.3141 0.4729
H50_3 H 0.37757 0.354932 0.723134
H51_2 H 0.977363 0.62243 0.723134
O1_2 O 0.67187(19) 0.20614(19) 0.83115(10)
O3_2 O 0.7082(3) 0.0616(2) 0.81086(11)
C1_2 C 0.6847(3) 0.1238(3) 0.84940(14)
C3_2 C 0.6731(2) 0.0930(2) 0.92256(13)
C4_2 C 0.6911(3) 0.0030(3) 0.94507(16)
C7_2 C 0.6425(3) 0.1526(2) 0.96801(14)
H2_2 H 0.6310 0.2130 0.9530
O6_2 O 0.79386(19) 0.46573(27) 0.83115(10)
O8_2 O 0.9384(2) 0.6466(4) 0.81086(11)
C23_2 C 0.8762(3) 0.5609(4) 0.84940(14)
C25_2 C 0.9070(2) 0.5801(3) 0.92256(13)
C26_2 C 0.9970(3) 0.6881(4) 0.94507(16)
C29_2 C 0.8474(2) 0.4899(4) 0.96801(14)
H18_2 H 0.7870 0.4180 0.9530
O11_2 O 0.53427(27) 0.32813(19) 0.83115(10)
O13_2 O 0.3534(4) 0.2918(3) 0.81086(11)
C45_2 C 0.4391(4) 0.3153(3) 0.84940(14)
C47_2 C 0.4199(3) 0.3269(2) 0.92256(13)
C48_2 C 0.3119(4) 0.3089(3) 0.94507(16)
H33_2 H 0.2503 0.2864 0.9150
C51_2 C 0.5101(4) 0.3575(3) 0.96801(14)
H34_2 H 0.5820 0.3690 0.9530
H49_4 H 0.783901 0.112209 0.787768
C6_2 C 0.6033(4) 0.9878(4) 0.2500
C10_2 C 0.6186(3) 0.9896(3) 0.12885(14)
H6_2 H 0.5801 0.9088 0.1347
C12_2 C 0.6753(3) 0.9721(3) 0.01245(15)
H9_2 H 0.6859 0.9110 0.0271
H10_2 H 0.7136 0.9639 0.5850
C20_2 C 0.6186(3) 0.9896(3) 0.37115(14)
H13_2 H 0.5801 0.9088 0.3653
C22_2 C 0.6753(3) 0.9721(3) 0.48755(15)
H16_2 H 0.6859 0.9110 0.4729
H50_4 H 0.645068 0.0226373 0.723134
H49_5 H 0.887791 0.671692 0.787768
H49_6 H 0.328308 0.216099 0.787768
H49_7 H 0.783901 0.112209 0.712232
H50_5 H 0.37757 0.354932 0.776866
H51_3 H 0.977363 0.62243 0.776866
H49_8 H 0.887791 0.671692 0.712232
H50_6 H 0.645068 0.0226373 0.776866
H49_9 H 0.328308 0.216099 0.712232
H49_10 H 0.216099 0.887791 0.212232
H50_7 H 0.62243 0.645068 0.276866
H51_4 H 0.0226373 0.37757 0.276866
H49_11 H 0.112209 0.328308 0.212232
H50_8 H 0.354932 0.977363 0.276866
H49_12 H 0.671692 0.783901 0.212232
H26_2 H 0.9639 0.2503 0.0850
H17_2 H 0.0361 0.7497 0.9150
H1_2 H 0.7136 0.9639 0.9150
loop_
_geom_bond_atom_site_label_1
_geom_bond_atom_site_label_2
_geom_bond_site_symmetry_1
_geom_bond_site_symmetry_2
O2 C6 1_555 1_555
H6 C10 1_555 1_555
H9 C12 1_555 1_555
H13 C20 1_555 1_555
H16 C22 1_555 1_555
Eu5 O2 1_555 1_555
O4 C13 1_555 1_555
O5 C13 1_555 1_555
C13 C15 1_555 1_555
C15 C16 1_555 1_555
C18 C15 1_555 1_555
H11 C18 1_555 1_555
O9 C35 1_555 1_555
O10 C35 1_555 1_555
C35 C37 1_555 1_555
C37 C38 1_555 1_555
C40 C37 1_555 1_555
H27 C40 1_555 1_555
O14 C57 1_555 1_555
O15 C57 1_555 1_555
C57 C59 1_555 1_555
C59 C60 1_555 1_555
C60 H42 1_555 1_555
C62 C59 1_555 1_555
H43 C62 1_555 1_555
Eu2 O4 1_555 1_555
O9 Eu2 1_555 1_555
O14 Eu2 1_555 1_555
O15 H50 1_555 1_555
O10 H51 1_555 1_555
Eu2 O1 1_555 1_555
O1 C1 1_555 1_555
O3 C1 1_555 1_555
C1 C3 1_555 1_555
C3 C4 1_555 1_555
C5 C8 1_555 1_555
C7 C3 1_555 1_555
H2 C7 1_555 1_555
C8 C7 1_555 1_555
H3 C8 1_555 1_555
C9 H4 1_555 1_555
H5 C9 1_555 1_555
C11 C2 1_555 1_555
H7 C11 1_555 1_555
H8 C11 1_555 1_555
C17 C19 1_555 1_555
H12 C19 1_555 1_555
C21 C9 1_555 1_555
H14 C21 1_555 1_555
H15 C21 1_555 1_555
O6 Eu2 1_555 1_555
O8 C23 1_555 1_555
C23 O6 1_555 1_555
C25 C23 1_555 1_555
C26 C25 1_555 1_555
C27 C30 1_555 1_555
C29 C25 1_555 1_555
H18 C29 1_555 1_555
C30 C29 1_555 1_555
H19 C30 1_555 1_555
C31 H20 1_555 1_555
H21 C31 1_555 1_555
C33 C24 1_555 1_555
H23 C33 1_555 1_555
H24 C33 1_555 1_555
C39 C41 1_555 1_555
H28 C41 1_555 1_555
C43 C31 1_555 1_555
H30 C43 1_555 1_555
H31 C43 1_555 1_555
O11 Eu2 1_555 1_555
O12 C50 1_555 1_555
O13 C45 1_555 1_555
C45 O11 1_555 1_555
C46 C50 1_555 1_555
C47 C45 1_555 1_555
C48 C47 1_555 1_555
H33 C48 1_555 1_555
C49 C52 1_555 1_555
C50 C58 1_555 1_555
C51 C47 1_555 1_555
H34 C51 1_555 1_555
C52 C51 1_555 1_555
H35 C52 1_555 1_555
C53 H36 1_555 1_555
H37 C53 1_555 1_555
C54 C46 1_555 1_555
H38 C54 1_555 1_555
C55 C46 1_555 1_555
H39 C55 1_555 1_555
H40 C55 1_555 1_555
C56 C48 1_555 1_555
H41 C56 1_555 1_555
C58 C64 1_555 1_555
C61 C63 1_555 1_555
H44 C63 1_555 1_555
C64 C61 1_555 1_555
H45 C64 1_555 1_555
C65 C53 1_555 1_555
H46 C65 1_555 1_555
H47 C65 1_555 1_555
H48 C66 1_555 1_555
Eu5 O12 1_555 1_555
O19 Eu2 1_555 1_555
O20 Eu2 1_555 1_555
O21 Eu2 1_555 1_555
C9 C11 1_555 1_555
C14 C21 1_555 1_555
C31 C33 1_555 1_555
C36 C43 1_555 1_555
C49 C54 1_555 1_555
C49 C56 1_555 1_555
C53 C55 1_555 1_555
C58 C65 1_555 1_555
C61 C66 1_555 1_555
O3 H49 1_555 1_555
O7 C28 1_555 1_555
H22 C32 1_555 1_555
H25 C34 1_555 1_555
H29 C42 1_555 1_555
H32 C44 1_555 1_555
Eu5 O7 1_555 1_555
O5 H50_2 1_555 1_555
O8 H49_2 1_555 1_555
O13 H49_3 1_555 1_555
O20 C28_2 1_555 1_555
H22_2 C32_2 1_555 1_555
H25_2 C34_2 1_555 1_555
H29_2 C42_2 1_555 1_555
H32_2 C44_2 1_555 1_555
C5_2 C8_2 1_555 1_555
H3_2 C8_2 1_555 1_555
C9_2 H4_2 1_555 1_555
H5_2 C9_2 1_555 1_555
C11_2 C2_2 1_555 1_555
H7_2 C11_2 1_555 1_555
H8_2 C11_2 1_555 1_555
O4_2 C13_2 1_555 1_555
O5_2 C13_2 1_555 1_555
C13_2 C15_2 1_555 1_555
C15_2 C16_2 1_555 1_555
C17_2 C19_2 1_555 1_555
C18_2 C15_2 1_555 1_555
H11_2 C18_2 1_555 1_555
C19_2 C18_2 1_555 1_555
H12_2 C19_2 1_555 1_555
C21_2 C9_2 1_555 1_555
H14_2 C21_2 1_555 1_555
H15_2 C21_2 1_555 1_555
C27_2 C30_2 1_555 1_555
H19_2 C30_2 1_555 1_555
C31_2 H20_2 1_555 1_555
H21_2 C31_2 1_555 1_555
C33_2 C24_2 1_555 1_555
H23_2 C33_2 1_555 1_555
H24_2 C33_2 1_555 1_555
O9_2 C35_2 1_555 1_555
O10_2 C35_2 1_555 1_555
C35_2 C37_2 1_555 1_555
C37_2 C38_2 1_555 1_555
C39_2 C41_2 1_555 1_555
C40_2 C37_2 1_555 1_555
H27_2 C40_2 1_555 1_555
C41_2 C40_2 1_555 1_555
H28_2 C41_2 1_555 1_555
C43_2 C31_2 1_555 1_555
H30_2 C43_2 1_555 1_555
H31_2 C43_2 1_555 1_555
O21 C50_2 1_555 1_555
C46_2 C50_2 1_555 1_555
C49_2 C52_2 1_555 1_555
C50_2 C58_2 1_555 1_555
H35_2 C52_2 1_555 1_555
C53_2 H36_2 1_555 1_555
H37_2 C53_2 1_555 1_555
C54_2 C46_2 1_555 1_555
H38_2 C54_2 1_555 1_555
C55_2 C46_2 1_555 1_555
H39_2 C55_2 1_555 1_555
H40_2 C55_2 1_555 1_555
H41_2 C56_2 1_555 1_555
O14_2 C57_2 1_555 1_555
O15_2 C57_2 1_555 1_555
C57_2 C59_2 1_555 1_555
C58_2 C64_2 1_555 1_555
C59_2 C60_2 1_555 1_555
C60_2 H42_2 1_555 1_555
C61_2 C63_2 1_555 1_555
C62_2 C59_2 1_555 1_555
H43_2 C62_2 1_555 1_555
C63_2 C62_2 1_555 1_555
H44_2 C63_2 1_555 1_555
C64_2 C61_2 1_555 1_555
H45_2 C64_2 1_555 1_555
C65_2 C53_2 1_555 1_555
H46_2 C65_2 1_555 1_555
H47_2 C65_2 1_555 1_555
C66_2 C60_2 1_555 1_555
H48_2 C66_2 1_555 1_555
Eu5 O4_2 1_555 1_555
C9_2 C11_2 1_555 1_555
C14_2 C21_2 1_555 1_555
C31_2 C33_2 1_555 1_555
O9_2 Eu5 1_555 1_555
C36_2 C43_2 1_555 1_555
C49_2 C54_2 1_555 1_555
C49_2 C56_2 1_555 1_555
C53_2 C55_2 1_555 1_555
O14_2 Eu5 1_555 1_555
C58_2 C65_2 1_555 1_555
C61_2 C66_2 1_555 1_555
O15_2 H50_3 1_555 1_555
O10_2 H51_2 1_555 1_555
Eu5 O1_2 1_555 1_555
O1_2 C1_2 1_555 1_555
O3_2 C1_2 1_555 1_555
C1_2 C3_2 1_555 1_555
C3_2 C4_2 1_555 1_555
C7_2 C3_2 1_555 1_555
H2_2 C7_2 1_555 1_555
O6_2 Eu5 1_555 1_555
O8_2 C23_2 1_555 1_555
C23_2 O6_2 1_555 1_555
C25_2 C23_2 1_555 1_555
C26_2 C25_2 1_555 1_555
C29_2 C25_2 1_555 1_555
H18_2 C29_2 1_555 1_555
O11_2 Eu5 1_555 1_555
O13_2 C45_2 1_555 1_555
C45_2 O11_2 1_555 1_555
C47_2 C45_2 1_555 1_555
C48_2 C47_2 1_555 1_555
H33_2 C48_2 1_555 1_555
C51_2 C47_2 1_555 1_555
H34_2 C51_2 1_555 1_555
O3_2 H49_4 1_555 1_555
O19 C6_2 1_555 1_555
H6_2 C10_2 1_555 1_555
H9_2 C12_2 1_555 1_555
H13_2 C20_2 1_555 1_555
H16_2 C22_2 1_555 1_555
O5_2 H50_4 1_555 1_555
O8_2 H49_5 1_555 1_555
O13_2 H49_6 1_555 1_555
O5_2 H49_7 1_555 1_555
O13_2 H50_5 1_555 1_555
O8_2 H51_3 1_555 1_555
O10_2 H49_8 1_555 1_555
O3_2 H50_6 1_555 1_555
O15_2 H49_9 1_555 1_555
O5 H49_10 1_555 1_555
O13 H50_7 1_555 1_555
O8 H51_4 1_555 1_555
O10 H49_11 1_555 1_555
O3 H50_8 1_555 1_555
O15 H49_12 1_555 1_555

#END
