
###############################################################################
#
# This file contains modified crystal structure data generated from the
# MOF subset of the Cambridge Structural Database (CSD) v543 
# hosted by the Cambridge Crystallographic Data Centre (CCDC).
#
# This work is licensed under the Creative Commons
# Attribution-NonCommercial-ShareAlike 4.0 International License.
# To view a copy of this license, visit
# http://creativecommons.org/licenses/by-nc-sa/4.0/
# or send a letter to
# Creative Commons, PO Box 1866, Mountain View, CA 94042, USA.
#
# CIF created using the CSD Python API on 29 September 2022
# The structure has been converted into the P1 space group
# The structure has a 3D framework
# The original CSD entry ZOGROF02 is in the monoclinic crystal system
# The framework has been calculated to contain at least 10.0% void space
# The void calculation uses a probe of radius 1.32A, grid spacing 0.4
#
###############################################################################

data_ZOGROF02
_chemical_formula_moiety         '(C124 H64 O29 Zr4)n'
_symmetry_cell_setting           triclinic
_symmetry_space_group_name_H-M   'P 1'
_symmetry_Int_Tables_number      1
_space_group_name_Hall           'P 1'
loop_
_symmetry_equiv_pos_site_id
_symmetry_equiv_pos_as_xyz
1 x,y,z
_cell_length_a                   32.670(7)
_cell_length_b                   15.900(3)
_cell_length_c                   8.0300(16)
_cell_angle_alpha                90
_cell_angle_beta                 104.200(3)
_cell_angle_gamma                90
_cell_volume                     4043.76
loop_
_atom_site_label
_atom_site_type_symbol
_atom_site_fract_x
_atom_site_fract_y
_atom_site_fract_z
Zr1 Zr 0.54212(10) 0.01793(8) 0.6624(2)
Zr2 Zr 0.45788(10) 0.01793(8) 0.8376(2)
O11 O 0.4731(4) 0.0186(3) 0.5962(8)
O12 O 0.5269(4) 0.0186(3) 0.9038(8)
O13 O 0.5295(4) 0.1541(3) 0.6917(9)
O14 O 0.4705(4) 0.1541(3) 0.8083(9)
O16 O 0.4061(4) 0.0872(4) 0.9297(9)
O17 O 0.5939(4) 0.0872(4) 0.5703(9)
O5 O 0.5939(4) 0.9128(4) 0.0703(9)
C14 C 0.6665(7) 0.8106(12) 0.093(2)
H6 H 0.6499 0.8028 0.1733
C15 C 0.7033(7) 0.7637(14) 0.110(2)
H7 H 0.7106 0.7251 0.2007
O8 O 0.8970(4) 0.5305(4) 0.1835(11)
C22 C 0.8864(5) 0.5791(5) 0.0512(11)
C23 C 0.8469(5) 0.6308(7) 0.0405(13)
C24 C 0.8209(7) 0.6229(11) 0.1587(19)
H13 H 0.8285 0.5853 0.2510
C27 C 0.7709(5) 0.7268(13) 0.0044(19)
C28 C 0.7837(7) 0.6700(12) 0.141(2)
H16 H 0.7671 0.6635 0.2223
O10 O 0.4731(4) 0.9814(3) 0.0962(8)
Zr7 Zr 0.45788(10) 0.98207(8) 0.3376(2)
Zr9 Zr 0.54212(10) 0.98207(8) 0.1624(2)
Zr10 Zr 0.95788(10) 0.48207(8) 0.3376(2)
O1 O 0.5269(4) 0.9814(3) 0.4038(8)
C1 C 0.5000 0.1895(6) 0.7500
C2 C 0.5000 0.2876(6) 0.7500
C3 C 0.5365(5) 0.6999(5) 0.7264(15)
H1 H 0.5602 0.7290 0.7100
O3 O 0.6030(4) 0.9695(4) 0.8165(11)
C4 C 0.5000 0.7444(6) 0.7500
C5 C 0.5000 0.8419(6) 0.7500
C6 C 0.5000 0.4680(6) 0.7500
O4 O 0.5304(4) 0.8789(4) 0.6946(10)
C7 C 0.5000 0.5641(6) 0.7500
C8 C 0.5314(6) 0.4226(5) 0.6967(15)
H2 H 0.5529 0.4515 0.6602
C9 C 0.6136(5) 0.9209(5) 0.9488(11)
C10 C 0.5358(6) 0.6092(5) 0.7283(16)
H3 H 0.5597 0.5796 0.7149
C11 C 0.5313(6) 0.3330(5) 0.6967(14)
H4 H 0.5528 0.3041 0.6601
C12 C 0.6531(5) 0.8692(7) 0.9595(13)
C13 C 0.6791(7) 0.8771(11) 0.8413(19)
H5 H 0.6715 0.9147 0.7490
C16 C 0.7291(5) 0.7732(13) 0.9956(19)
C17 C 0.7163(7) 0.8300(12) 0.859(2)
H8 H 0.7329 0.8365 0.7777
C18 C 0.4635(5) 0.6999(5) 0.7736(15)
H9 H 0.4398 0.7290 0.7900
O7 O 0.4696(4) 0.8789(4) 0.8054(10)
C19 C 0.4686(6) 0.4226(5) 0.8033(15)
H10 H 0.4471 0.4515 0.8398
C20 C 0.4642(6) 0.6092(5) 0.7717(16)
H11 H 0.4403 0.5796 0.7851
C21 C 0.4687(6) 0.3330(5) 0.8033(14)
H12 H 0.4472 0.3041 0.8399
O9 O 0.9061(4) 0.5872(4) 0.9297(9)
C25 C 0.8335(7) 0.6894(12) 0.907(2)
H14 H 0.8501 0.6972 0.8267
C26 C 0.7967(7) 0.7363(14) 0.890(2)
H15 H 0.7894 0.7749 0.7993
Zr5 Zr 0.95788(10) 0.51793(8) 0.8376(2)
O15 O 0.3970(4) 0.9695(4) 0.6835(11)
C9_2 C 0.3864(5) 0.9209(5) 0.5512(11)
O5_2 O 0.4061(4) 0.9128(4) 0.4297(9)
C12_2 C 0.3469(5) 0.8692(7) 0.5405(13)
C13_2 C 0.3209(7) 0.8771(11) 0.6587(19)
H5_2 H 0.3285 0.9147 0.7510
C14_2 C 0.3335(7) 0.8106(12) 0.407(2)
H6_2 H 0.3501 0.8028 0.3267
C15_2 C 0.2967(7) 0.7637(14) 0.390(2)
H7_2 H 0.2894 0.7251 0.2993
C16_2 C 0.2709(5) 0.7732(13) 0.5044(19)
C17_2 C 0.2837(7) 0.8300(12) 0.641(2)
H8_2 H 0.2671 0.8365 0.7223
O8_2 O 0.1030(4) 0.5305(4) 0.3165(11)
C22_2 C 0.1136(5) 0.5791(5) 0.4488(11)
O9_2 O 0.0939(4) 0.5872(4) 0.5703(9)
C23_2 C 0.1531(5) 0.6308(7) 0.4595(13)
C24_2 C 0.1791(7) 0.6229(11) 0.3413(19)
H13_2 H 0.1715 0.5853 0.2490
C25_2 C 0.1665(7) 0.6894(12) 0.593(2)
H14_2 H 0.1499 0.6972 0.6733
C26_2 C 0.2033(7) 0.7363(14) 0.610(2)
H15_2 H 0.2106 0.7749 0.7007
C27_2 C 0.2291(5) 0.7268(13) 0.4956(19)
C28_2 C 0.2163(7) 0.6700(12) 0.359(2)
H16_2 H 0.2329 0.6635 0.2777
Zr5_2 Zr 0.04212(10) 0.51793(8) 0.6624(2)
Zr10_2 Zr 0.04212(10) 0.48207(8) 0.1624(2)
O5_3 O 0.0939(4) 0.4128(4) 0.0703(9)
C14_3 C 0.1665(7) 0.3106(12) 0.093(2)
H6_3 H 0.1499 0.3028 0.1733
C15_3 C 0.2033(7) 0.2637(14) 0.110(2)
H7_3 H 0.2106 0.2251 0.2007
O8_3 O 0.3970(4) 0.0305(4) 0.1835(11)
C22_3 C 0.3864(5) 0.0791(5) 0.0512(11)
C23_3 C 0.3469(5) 0.1308(7) 0.0405(13)
C24_3 C 0.3209(7) 0.1229(11) 0.1587(19)
H13_3 H 0.3285 0.0853 0.2510
C27_3 C 0.2709(5) 0.2268(13) 0.0044(19)
C28_3 C 0.2837(7) 0.1700(12) 0.141(2)
H16_3 H 0.2671 0.1635 0.2223
O1_2 O 0.0269(4) 0.4814(3) 0.4038(8)
C3_2 C 0.0365(5) 0.1999(5) 0.7264(15)
H1_2 H 0.0602 0.2290 0.7100
O3_2 O 0.1030(4) 0.4695(4) 0.8165(11)
C4_2 C -0.0000 0.2444(6) 0.7500
C5_2 C -0.0000 0.3419(6) 0.7500
O4_2 O 0.0304(4) 0.3789(4) 0.6946(10)
C7_2 C -0.0000 0.0641(6) 0.7500
C9_3 C 0.1136(5) 0.4209(5) 0.9488(11)
C10_2 C 0.0358(6) 0.1092(5) 0.7283(16)
H3_2 H 0.0597 0.0796 0.7149
C12_3 C 0.1531(5) 0.3692(7) 0.9595(13)
C13_3 C 0.1791(7) 0.3771(11) 0.8413(19)
H5_3 H 0.1715 0.4147 0.7490
C16_3 C 0.2291(5) 0.2732(13) 0.9956(19)
C17_3 C 0.2163(7) 0.3300(12) 0.859(2)
H8_3 H 0.2329 0.3365 0.7777
C25_3 C 0.3335(7) 0.1894(12) 0.907(2)
H14_3 H 0.3501 0.1972 0.8267
C26_3 C 0.2967(7) 0.2363(14) 0.890(2)
H15_3 H 0.2894 0.2749 0.7993
O12_2 O 0.0269(4) 0.5186(3) 0.9038(8)
O13_2 O 0.0295(4) 0.6541(3) 0.6917(9)
C1_2 C -0.0000 0.6895(6) 0.7500
C2_2 C -0.0000 0.7876(6) 0.7500
C6_2 C -0.0000 0.9680(6) 0.7500
C8_2 C 0.0314(6) 0.9226(5) 0.6967(15)
H2_2 H 0.0529 0.9515 0.6602
C11_2 C 0.0313(6) 0.8330(5) 0.6967(14)
H4_2 H 0.0528 0.8041 0.6601
O10_2 O 0.9731(4) 0.4814(3) 0.0962(8)
C4_3 C 1.0000 0.2444(6) 0.7500
C5_3 C 1.0000 0.3419(6) 0.7500
C7_3 C 1.0000 0.0641(6) 0.7500
C18_2 C 0.9635(5) 0.1999(5) 0.7736(15)
H9_2 H 0.9398 0.2290 0.7900
O7_2 O 0.9696(4) 0.3789(4) 0.8054(10)
C20_2 C 0.9642(6) 0.1092(5) 0.7717(16)
H11_2 H 0.9403 0.0796 0.7851
O11_2 O 0.9731(4) 0.5186(3) 0.5962(8)
O14_2 O 0.9705(4) 0.6541(3) 0.8083(9)
O15_2 O 0.8970(4) 0.4695(4) 0.6835(11)
C1_3 C 1.0000 0.6895(6) 0.7500
C2_3 C 1.0000 0.7876(6) 0.7500
C6_3 C 1.0000 0.9680(6) 0.7500
C19_2 C 0.9686(6) 0.9226(5) 0.8033(15)
H10_2 H 0.9471 0.9515 0.8398
C21_2 C 0.9687(6) 0.8330(5) 0.8033(14)
H12_2 H 0.9472 0.8041 0.8399
C9_4 C 0.8864(5) 0.4209(5) 0.5512(11)
O5_4 O 0.9061(4) 0.4128(4) 0.4297(9)
C12_4 C 0.8469(5) 0.3692(7) 0.5405(13)
C13_4 C 0.8209(7) 0.3771(11) 0.6587(19)
H5_4 H 0.8285 0.4147 0.7510
C14_4 C 0.8335(7) 0.3106(12) 0.407(2)
H6_4 H 0.8501 0.3028 0.3267
C15_4 C 0.7967(7) 0.2637(14) 0.390(2)
H7_4 H 0.7894 0.2251 0.2993
C16_4 C 0.7709(5) 0.2732(13) 0.5044(19)
C17_4 C 0.7837(7) 0.3300(12) 0.641(2)
H8_4 H 0.7671 0.3365 0.7223
O8_4 O 0.6030(4) 0.0305(4) 0.3165(11)
C22_4 C 0.6136(5) 0.0791(5) 0.4488(11)
C23_4 C 0.6531(5) 0.1308(7) 0.4595(13)
C24_4 C 0.6791(7) 0.1229(11) 0.3413(19)
H13_4 H 0.6715 0.0853 0.2490
C25_4 C 0.6665(7) 0.1894(12) 0.593(2)
H14_4 H 0.6499 0.1972 0.6733
C26_4 C 0.7033(7) 0.2363(14) 0.610(2)
H15_4 H 0.7106 0.2749 0.7007
C27_4 C 0.7291(5) 0.2268(13) 0.4956(19)
C28_4 C 0.7163(7) 0.1700(12) 0.359(2)
H16_4 H 0.7329 0.1635 0.2777
O2 O 0.4705(4) 0.8459(3) 0.3083(9)
C1_4 C 0.5000 0.8105(6) 0.2500
C2_4 C 0.5000 0.7124(6) 0.2500
C3_3 C 0.4635(5) 0.3001(5) 0.2736(15)
H1_3 H 0.4398 0.2710 0.2900
C4_4 C 0.5000 0.2556(6) 0.2500
C5_4 C 0.5000 0.1581(6) 0.2500
C6_4 C 0.5000 0.5320(6) 0.2500
O4_3 O 0.4696(4) 0.1211(4) 0.3054(10)
C7_4 C 0.5000 0.4359(6) 0.2500
C8_3 C 0.4686(6) 0.5774(5) 0.3033(15)
H2_3 H 0.4471 0.5485 0.3398
C10_3 C 0.4642(6) 0.3908(5) 0.2717(16)
H3_3 H 0.4403 0.4204 0.2851
C11_3 C 0.4687(6) 0.6670(5) 0.3033(14)
H4_3 H 0.4472 0.6959 0.3399
O6 O 0.5295(4) 0.8459(3) 0.1917(9)
C18_3 C 0.5365(5) 0.3001(5) 0.2264(15)
H9_3 H 0.5602 0.2710 0.2100
O7_3 O 0.5304(4) 0.1211(4) 0.1946(10)
C19_3 C 0.5314(6) 0.5774(5) 0.1967(15)
H10_3 H 0.5529 0.5485 0.1602
C20_3 C 0.5358(6) 0.3908(5) 0.2283(16)
H11_3 H 0.5597 0.4204 0.2149
C21_3 C 0.5313(6) 0.6670(5) 0.1967(14)
H12_3 H 0.5528 0.6959 0.1601
C1_5 C -0.0000 0.3105(6) 0.2500
C2_5 C -0.0000 0.2124(6) 0.2500
C6_5 C -0.0000 0.0320(6) 0.2500
O6_2 O 0.0295(4) 0.3459(3) 0.1917(9)
C19_4 C 0.0314(6) 0.0774(5) 0.1967(15)
H10_4 H 0.0529 0.0485 0.1602
C21_4 C 0.0313(6) 0.1670(5) 0.1967(14)
H12_4 H 0.0528 0.1959 0.1601
C4_5 C -0.0000 0.7556(6) 0.2500
C5_5 C 0.0000 0.6581(6) 0.2500
C7_5 C -0.0000 0.9359(6) 0.2500
C18_4 C 0.0365(5) 0.8001(5) 0.2264(15)
H9_4 H 0.0602 0.7710 0.2100
O7_4 O 0.0304(4) 0.6211(4) 0.1946(10)
C20_4 C 0.0358(6) 0.8908(5) 0.2283(16)
H11_4 H 0.0597 0.9204 0.2149
O2_2 O 0.9705(4) 0.3459(3) 0.3083(9)
C1_6 C 1.0000 0.3105(6) 0.2500
C2_6 C 1.0000 0.2124(6) 0.2500
C6_6 C 1.0000 0.0320(6) 0.2500
C8_4 C 0.9686(6) 0.0774(5) 0.3033(15)
H2_4 H 0.9471 0.0485 0.3398
C11_4 C 0.9687(6) 0.1670(5) 0.3033(14)
H4_4 H 0.9472 0.1959 0.3399
C3_4 C 0.9635(5) 0.8001(5) 0.2736(15)
H1_4 H 0.9398 0.7710 0.2900
C4_6 C 1.0000 0.7556(6) 0.2500
C5_6 C 1.0000 0.6581(6) 0.2500
O4_4 O 0.9696(4) 0.6211(4) 0.3054(10)
C7_6 C 1.0000 0.9359(6) 0.2500
C10_4 C 0.9642(6) 0.8908(5) 0.2717(16)
H3_4 H 0.9403 0.9204 0.2851
loop_
_geom_bond_atom_site_label_1
_geom_bond_atom_site_label_2
_geom_bond_site_symmetry_1
_geom_bond_site_symmetry_2
O11 Zr1 1_555 1_555
O12 Zr1 1_555 1_555
O13 Zr1 1_555 1_555
O14 Zr2 1_555 1_555
O16 Zr2 1_555 1_555
O17 Zr1 1_555 1_555
Zr2 O11 1_555 1_555
Zr2 O12 1_555 1_555
H6 C14 1_555 1_555
C15 C14 1_555 1_555
H7 C15 1_555 1_555
O8 C22 1_555 1_555
C23 C22 1_555 1_555
C24 C23 1_555 1_555
H13 C24 1_555 1_555
C28 C24 1_555 1_555
H16 C28 1_555 1_555
Zr7 O10 1_555 1_555
Zr9 O5 1_555 1_555
Zr10 O8 1_555 1_555
C27 C28 1_555 1_555
O10 Zr9 1_555 1_555
O1 Zr7 1_555 1_555
O13 C1 1_555 1_555
C1 C2 1_555 1_555
C2 C11 1_555 1_555
C3 H1 1_555 1_555
C4 C3 1_555 1_555
C5 C4 1_555 1_555
C6 C7 1_555 1_555
C7 C10 1_555 1_555
C8 C6 1_555 1_555
H2 C8 1_555 1_555
C9 O3 1_555 1_555
C10 C3 1_555 1_555
H3 C10 1_555 1_555
C11 C8 1_555 1_555
H4 C11 1_555 1_555
C12 C9 1_555 1_555
C13 C12 1_555 1_555
H5 C13 1_555 1_555
C17 C13 1_555 1_555
H8 C17 1_555 1_555
O14 C1 1_555 1_555
C18 C4 1_555 1_555
H9 C18 1_555 1_555
O7 C5 1_555 1_555
C19 C6 1_555 1_555
H10 C19 1_555 1_555
C20 C7 1_555 1_555
H11 C20 1_555 1_555
C21 C2 1_555 1_555
H12 C21 1_555 1_555
O9 Zr5 1_555 1_555
H14 C25 1_555 1_555
C26 C25 1_555 1_555
H15 C26 1_555 1_555
Zr9 O1 1_555 1_555
C5 O4 1_555 1_555
C16 C17 1_555 1_555
C18 C20 1_555 1_555
C19 C21 1_555 1_555
C9_2 O15 1_555 1_555
O5_2 C9_2 1_555 1_555
C12_2 C9_2 1_555 1_555
C13_2 C12_2 1_555 1_555
H5_2 C13_2 1_555 1_555
C14_2 C12_2 1_555 1_555
H6_2 C14_2 1_555 1_555
C15_2 C14_2 1_555 1_555
H7_2 C15_2 1_555 1_555
C16_2 C15_2 1_555 1_555
C17_2 C13_2 1_555 1_555
H8_2 C17_2 1_555 1_555
O8_2 C22_2 1_555 1_555
C22_2 O9_2 1_555 1_555
O9_2 Zr5_2 1_555 1_555
C23_2 C22_2 1_555 1_555
C24_2 C23_2 1_555 1_555
H13_2 C24_2 1_555 1_555
C25_2 C23_2 1_555 1_555
H14_2 C25_2 1_555 1_555
C26_2 C25_2 1_555 1_555
H15_2 C26_2 1_555 1_555
C27_2 C16_2 1_555 1_555
C28_2 C24_2 1_555 1_555
H16_2 C28_2 1_555 1_555
Zr7 O5_2 1_555 1_555
Zr10_2 O8_2 1_555 1_555
C16_2 C17_2 1_555 1_555
C26_2 C27_2 1_555 1_555
C27_2 C28_2 1_555 1_555
H6_3 C14_3 1_555 1_555
C15_3 C14_3 1_555 1_555
H7_3 C15_3 1_555 1_555
O8_3 C22_3 1_555 1_555
C23_3 C22_3 1_555 1_555
C24_3 C23_3 1_555 1_555
H13_3 C24_3 1_555 1_555
C28_3 C24_3 1_555 1_555
H16_3 C28_3 1_555 1_555
Zr10_2 O5_3 1_555 1_555
C27_3 C28_3 1_555 1_555
Zr5_2 O1_2 1_555 1_555
C3_2 H1_2 1_555 1_555
O3_2 Zr5_2 1_555 1_555
C4_2 C3_2 1_555 1_555
C5_2 C4_2 1_555 1_555
O4_2 Zr5_2 1_555 1_555
C7_2 C10_2 1_555 1_555
C9_3 O3_2 1_555 1_555
C10_2 C3_2 1_555 1_555
H3_2 C10_2 1_555 1_555
C12_3 C9_3 1_555 1_555
C13_3 C12_3 1_555 1_555
H5_3 C13_3 1_555 1_555
C17_3 C13_3 1_555 1_555
H8_3 C17_3 1_555 1_555
H14_3 C25_3 1_555 1_555
C26_3 C25_3 1_555 1_555
H15_3 C26_3 1_555 1_555
Zr10_2 O1_2 1_555 1_555
O12_2 Zr5_2 1_555 1_555
O13_2 Zr5_2 1_555 1_555
C5_2 O4_2 1_555 1_555
C16_3 C17_3 1_555 1_555
O13_2 C1_2 1_555 1_555
C1_2 C2_2 1_555 1_555
C2_2 C11_2 1_555 1_555
C8_2 C6_2 1_555 1_555
H2_2 C8_2 1_555 1_555
C11_2 C8_2 1_555 1_555
H4_2 C11_2 1_555 1_555
Zr10 O10_2 1_555 1_555
C5_3 C4_3 1_555 1_555
C18_2 C4_3 1_555 1_555
H9_2 C18_2 1_555 1_555
O7_2 C5_3 1_555 1_555
C20_2 C7_3 1_555 1_555
H11_2 C20_2 1_555 1_555
Zr5 O7_2 1_555 1_555
Zr10 O11_2 1_555 1_555
O14_2 Zr5 1_555 1_555
O15_2 Zr5 1_555 1_555
C18_2 C20_2 1_555 1_555
Zr5 O11_2 1_555 1_555
C1_3 C2_3 1_555 1_555
O14_2 C1_3 1_555 1_555
C19_2 C6_3 1_555 1_555
H10_2 C19_2 1_555 1_555
C21_2 C2_3 1_555 1_555
H12_2 C21_2 1_555 1_555
C19_2 C21_2 1_555 1_555
C9_4 O15_2 1_555 1_555
O5_4 C9_4 1_555 1_555
C12_4 C9_4 1_555 1_555
C13_4 C12_4 1_555 1_555
H5_4 C13_4 1_555 1_555
C14_4 C12_4 1_555 1_555
H6_4 C14_4 1_555 1_555
C15_4 C14_4 1_555 1_555
H7_4 C15_4 1_555 1_555
C16_4 C15_4 1_555 1_555
C17_4 C13_4 1_555 1_555
H8_4 C17_4 1_555 1_555
O8_4 C22_4 1_555 1_555
C22_4 O17 1_555 1_555
C23_4 C22_4 1_555 1_555
C24_4 C23_4 1_555 1_555
H13_4 C24_4 1_555 1_555
C25_4 C23_4 1_555 1_555
H14_4 C25_4 1_555 1_555
C26_4 C25_4 1_555 1_555
H15_4 C26_4 1_555 1_555
C27_4 C16_4 1_555 1_555
C28_4 C24_4 1_555 1_555
H16_4 C28_4 1_555 1_555
Zr10 O5_4 1_555 1_555
C16_4 C17_4 1_555 1_555
C26_4 C27_4 1_555 1_555
C27_4 C28_4 1_555 1_555
O2 C1_4 1_555 1_555
C1_4 C2_4 1_555 1_555
C2_4 C11_3 1_555 1_555
C3_3 H1_3 1_555 1_555
C4_4 C3_3 1_555 1_555
C5_4 C4_4 1_555 1_555
C6_4 C7_4 1_555 1_555
C7_4 C10_3 1_555 1_555
C8_3 C6_4 1_555 1_555
H2_3 C8_3 1_555 1_555
C10_3 C3_3 1_555 1_555
H3_3 C10_3 1_555 1_555
C11_3 C8_3 1_555 1_555
H4_3 C11_3 1_555 1_555
O6 C1_4 1_555 1_555
C18_3 C4_4 1_555 1_555
H9_3 C18_3 1_555 1_555
O7_3 C5_4 1_555 1_555
C19_3 C6_4 1_555 1_555
H10_3 C19_3 1_555 1_555
C20_3 C7_4 1_555 1_555
H11_3 C20_3 1_555 1_555
C21_3 C2_4 1_555 1_555
H12_3 C21_3 1_555 1_555
Zr7 O2 1_555 1_555
Zr9 O6 1_555 1_555
C5_4 O4_3 1_555 1_555
C18_3 C20_3 1_555 1_555
C19_3 C21_3 1_555 1_555
C1_5 C2_5 1_555 1_555
O6_2 C1_5 1_555 1_555
C19_4 C6_5 1_555 1_555
H10_4 C19_4 1_555 1_555
C21_4 C2_5 1_555 1_555
H12_4 C21_4 1_555 1_555
Zr10_2 O6_2 1_555 1_555
C19_4 C21_4 1_555 1_555
C5_5 C4_5 1_555 1_555
C18_4 C4_5 1_555 1_555
H9_4 C18_4 1_555 1_555
O7_4 C5_5 1_555 1_555
C20_4 C7_5 1_555 1_555
H11_4 C20_4 1_555 1_555
Zr10_2 O7_4 1_555 1_555
C18_4 C20_4 1_555 1_555
O2_2 C1_6 1_555 1_555
C1_6 C2_6 1_555 1_555
C2_6 C11_4 1_555 1_555
C8_4 C6_6 1_555 1_555
H2_4 C8_4 1_555 1_555
C11_4 C8_4 1_555 1_555
H4_4 C11_4 1_555 1_555
Zr10 O2_2 1_555 1_555
C3_4 H1_4 1_555 1_555
C4_6 C3_4 1_555 1_555
C5_6 C4_6 1_555 1_555
O4_4 Zr10 1_555 1_555
C7_6 C10_4 1_555 1_555
C10_4 C3_4 1_555 1_555
H3_4 C10_4 1_555 1_555
C5_6 O4_4 1_555 1_555

#END
