
###############################################################################
#
# This file contains modified crystal structure data generated from the
# MOF subset of the Cambridge Structural Database (CSD) v543 
# hosted by the Cambridge Crystallographic Data Centre (CCDC).
#
# This work is licensed under the Creative Commons
# Attribution-NonCommercial-ShareAlike 4.0 International License.
# To view a copy of this license, visit
# http://creativecommons.org/licenses/by-nc-sa/4.0/
# or send a letter to
# Creative Commons, PO Box 1866, Mountain View, CA 94042, USA.
#
# CIF created using the CSD Python API on 29 September 2022
# The structure has been converted into the P1 space group
# The structure has a 3D framework
# The original CSD entry ZOGROF01 is in the monoclinic crystal system
# The framework has been calculated to contain at least 10.0% void space
# The void calculation uses a probe of radius 1.32A, grid spacing 0.4
#
###############################################################################

data_ZOGROF01
_chemical_formula_moiety         '(C124 H64 O29 Zr4)n'
_symmetry_cell_setting           triclinic
_symmetry_space_group_name_H-M   'P 1'
_symmetry_Int_Tables_number      1
_space_group_name_Hall           'P 1'
loop_
_symmetry_equiv_pos_site_id
_symmetry_equiv_pos_as_xyz
1 x,y,z
_cell_length_a                   32.360(7)
_cell_length_b                   15.800(3)
_cell_length_c                   7.9100(16)
_cell_angle_alpha                90
_cell_angle_beta                 103.00(3)
_cell_angle_gamma                90
_cell_volume                     3940.63
loop_
_atom_site_label
_atom_site_type_symbol
_atom_site_fract_x
_atom_site_fract_y
_atom_site_fract_z
Zr1 Zr 0.54217(8) 0.01650(7) 0.66150(16)
Zr2 Zr 0.45783(8) 0.01650(7) 0.83850(16)
O11 O 0.4744(4) 0.0171(2) 0.5978(6)
O12 O 0.5256(4) 0.0171(2) 0.9022(6)
O13 O 0.5300(3) 0.1527(3) 0.6915(7)
O14 O 0.4700(3) 0.1527(3) 0.8085(7)
O16 O 0.4073(4) 0.0857(3) 0.9319(7)
O17 O 0.5927(4) 0.0857(3) 0.5681(7)
O5 O 0.5927(4) 0.9143(3) 0.0681(7)
C14 C 0.6703(7) 0.8200(12) 0.1061(17)
H6 H 0.6555 0.8176 0.1943
C15 C 0.7073(6) 0.7736(12) 0.1240(16)
H7 H 0.7171 0.7407 0.2223
O8 O 0.8979(3) 0.5325(4) 0.1887(8)
C22 C 0.8862(3) 0.5810(5) 0.0490(8)
C23 C 0.8457(5) 0.6304(7) 0.0366(10)
C24 C 0.8234(6) 0.6297(11) 0.1696(15)
H13 H 0.8337 0.5986 0.2700
C27 C 0.7702(5) 0.7234(10) 0.0055(16)
C28 C 0.7857(7) 0.6757(13) 0.1522(17)
H16 H 0.7710 0.6740 0.2403
O10 O 0.4744(4) 0.9829(2) 0.0978(6)
Zr7 Zr 0.45783(8) 0.98350(7) 0.33850(16)
Zr9 Zr 0.54217(8) 0.98350(7) 0.16150(16)
Zr10 Zr 0.95783(8) 0.48350(7) 0.33850(16)
O1 O 0.5256(4) 0.9829(2) 0.4022(6)
C1 C 0.5000 0.1904(6) 0.7500
C2 C 0.5000 0.2851(5) 0.7500
C3 C 0.5354(5) 0.6979(5) 0.7245(12)
H1 H 0.5593 0.7259 0.7055
O3 O 0.6021(3) 0.9675(4) 0.8113(8)
C4 C 0.5000 0.7450(5) 0.7500
C5 C 0.5000 0.8400(5) 0.7500
C6 C 0.5000 0.4678(6) 0.7500
O4 O 0.5300(3) 0.8769(3) 0.6931(6)
C7 C 0.5000 0.5623(5) 0.7500
C8 C 0.5322(5) 0.4201(4) 0.7067(13)
H2 H 0.5544 0.4490 0.6752
C9 C 0.6138(3) 0.9190(5) 0.9510(8)
C10 C 0.5345(5) 0.6093(5) 0.7278(14)
H3 H 0.5586 0.5803 0.7143
C11 C 0.5336(5) 0.3324(5) 0.7074(15)
H4 H 0.5565 0.3044 0.6799
C12 C 0.6543(5) 0.8696(7) 0.9634(10)
C13 C 0.6766(6) 0.8703(11) 0.8304(15)
H5 H 0.6663 0.9014 0.7300
C16 C 0.7298(5) 0.7766(10) 0.9945(16)
C17 C 0.7143(7) 0.8243(13) 0.8478(17)
H8 H 0.7290 0.8260 0.7597
C18 C 0.4646(5) 0.6979(5) 0.7755(12)
H9 H 0.4407 0.7259 0.7945
O7 O 0.4700(3) 0.8769(3) 0.8069(6)
C19 C 0.4678(5) 0.4201(4) 0.7933(13)
H10 H 0.4456 0.4490 0.8248
C20 C 0.4655(5) 0.6093(5) 0.7722(14)
H11 H 0.4414 0.5803 0.7857
C21 C 0.4664(5) 0.3324(5) 0.7926(15)
H12 H 0.4435 0.3044 0.8201
O9 O 0.9073(4) 0.5857(3) 0.9319(7)
C25 C 0.8297(7) 0.6800(12) 0.8939(17)
H14 H 0.8445 0.6824 0.8057
C26 C 0.7927(6) 0.7264(12) 0.8760(16)
H15 H 0.7829 0.7593 0.7777
Zr5 Zr 0.95783(8) 0.51650(7) 0.83850(16)
O15 O 0.3979(3) 0.9675(4) 0.6887(8)
C9_2 C 0.3862(3) 0.9190(5) 0.5490(8)
O5_2 O 0.4073(4) 0.9143(3) 0.4319(7)
C12_2 C 0.3457(5) 0.8696(7) 0.5366(10)
C13_2 C 0.3234(6) 0.8703(11) 0.6696(15)
H5_2 H 0.3337 0.9014 0.7700
C14_2 C 0.3297(7) 0.8200(12) 0.3939(17)
H6_2 H 0.3445 0.8176 0.3057
C15_2 C 0.2927(6) 0.7736(12) 0.3760(16)
H7_2 H 0.2829 0.7407 0.2777
C16_2 C 0.2702(5) 0.7766(10) 0.5055(16)
C17_2 C 0.2857(7) 0.8243(13) 0.6522(17)
H8_2 H 0.2710 0.8260 0.7403
O8_2 O 0.1021(3) 0.5325(4) 0.3113(8)
C22_2 C 0.1138(3) 0.5810(5) 0.4510(8)
O9_2 O 0.0927(4) 0.5857(3) 0.5681(7)
C23_2 C 0.1543(5) 0.6304(7) 0.4634(10)
C24_2 C 0.1766(6) 0.6297(11) 0.3304(15)
H13_2 H 0.1663 0.5986 0.2300
C25_2 C 0.1703(7) 0.6800(12) 0.6061(17)
H14_2 H 0.1555 0.6824 0.6943
C26_2 C 0.2073(6) 0.7264(12) 0.6240(16)
H15_2 H 0.2171 0.7593 0.7223
C27_2 C 0.2298(5) 0.7234(10) 0.4945(16)
C28_2 C 0.2143(7) 0.6757(13) 0.3478(17)
H16_2 H 0.2290 0.6740 0.2597
Zr5_2 Zr 0.04217(8) 0.51650(7) 0.66150(16)
Zr10_2 Zr 0.04217(8) 0.48350(7) 0.16150(16)
O5_3 O 0.0927(4) 0.4143(3) 0.0681(7)
C14_3 C 0.1703(7) 0.3200(12) 0.1061(17)
H6_3 H 0.1555 0.3176 0.1943
C15_3 C 0.2073(6) 0.2736(12) 0.1240(16)
H7_3 H 0.2171 0.2407 0.2223
O8_3 O 0.3979(3) 0.0325(4) 0.1887(8)
C22_3 C 0.3862(3) 0.0810(5) 0.0490(8)
C23_3 C 0.3457(5) 0.1304(7) 0.0366(10)
C24_3 C 0.3234(6) 0.1297(11) 0.1696(15)
H13_3 H 0.3337 0.0986 0.2700
C27_3 C 0.2702(5) 0.2234(10) 0.0055(16)
C28_3 C 0.2857(7) 0.1757(13) 0.1522(17)
H16_3 H 0.2710 0.1740 0.2403
O1_2 O 0.0256(4) 0.4829(2) 0.4022(6)
C3_2 C 0.0354(5) 0.1979(5) 0.7245(12)
H1_2 H 0.0593 0.2259 0.7055
O3_2 O 0.1021(3) 0.4675(4) 0.8113(8)
C4_2 C 0.0000 0.2450(5) 0.7500
C5_2 C 0.0000 0.3400(5) 0.7500
O4_2 O 0.0300(3) 0.3769(3) 0.6931(6)
C7_2 C 0.0000 0.0623(5) 0.7500
C9_3 C 0.1138(3) 0.4190(5) 0.9510(8)
C10_2 C 0.0345(5) 0.1093(5) 0.7278(14)
H3_2 H 0.0586 0.0803 0.7143
C12_3 C 0.1543(5) 0.3696(7) 0.9634(10)
C13_3 C 0.1766(6) 0.3703(11) 0.8304(15)
H5_3 H 0.1663 0.4014 0.7300
C16_3 C 0.2298(5) 0.2766(10) 0.9945(16)
C17_3 C 0.2143(7) 0.3243(13) 0.8478(17)
H8_3 H 0.2290 0.3260 0.7597
C25_3 C 0.3297(7) 0.1800(12) 0.8939(17)
H14_3 H 0.3445 0.1824 0.8057
C26_3 C 0.2927(6) 0.2264(12) 0.8760(16)
H15_3 H 0.2829 0.2593 0.7777
O12_2 O 0.0256(4) 0.5171(2) 0.9022(6)
O13_2 O 0.0300(3) 0.6527(3) 0.6915(7)
C1_2 C 0.0000 0.6904(6) 0.7500
C2_2 C 0.0000 0.7851(5) 0.7500
C6_2 C 0.0000 0.9678(6) 0.7500
C8_2 C 0.0322(5) 0.9201(4) 0.7067(13)
H2_2 H 0.0544 0.9490 0.6752
C11_2 C 0.0336(5) 0.8324(5) 0.7074(15)
H4_2 H 0.0565 0.8044 0.6799
O10_2 O 0.9744(4) 0.4829(2) 0.0978(6)
C4_3 C 1.0000 0.2450(5) 0.7500
C5_3 C 1.0000 0.3400(5) 0.7500
C7_3 C 1.0000 0.0623(5) 0.7500
C18_2 C 0.9646(5) 0.1979(5) 0.7755(12)
H9_2 H 0.9407 0.2259 0.7945
O7_2 O 0.9700(3) 0.3769(3) 0.8069(6)
C20_2 C 0.9655(5) 0.1093(5) 0.7722(14)
H11_2 H 0.9414 0.0803 0.7857
O11_2 O 0.9744(4) 0.5171(2) 0.5978(6)
O14_2 O 0.9700(3) 0.6527(3) 0.8085(7)
O15_2 O 0.8979(3) 0.4675(4) 0.6887(8)
C1_3 C 1.0000 0.6904(6) 0.7500
C2_3 C 1.0000 0.7851(5) 0.7500
C6_3 C 1.0000 0.9678(6) 0.7500
C19_2 C 0.9678(5) 0.9201(4) 0.7933(13)
H10_2 H 0.9456 0.9490 0.8248
C21_2 C 0.9664(5) 0.8324(5) 0.7926(15)
H12_2 H 0.9435 0.8044 0.8201
C9_4 C 0.8862(3) 0.4190(5) 0.5490(8)
O5_4 O 0.9073(4) 0.4143(3) 0.4319(7)
C12_4 C 0.8457(5) 0.3696(7) 0.5366(10)
C13_4 C 0.8234(6) 0.3703(11) 0.6696(15)
H5_4 H 0.8337 0.4014 0.7700
C14_4 C 0.8297(7) 0.3200(12) 0.3939(17)
H6_4 H 0.8445 0.3176 0.3057
C15_4 C 0.7927(6) 0.2736(12) 0.3760(16)
H7_4 H 0.7829 0.2407 0.2777
C16_4 C 0.7702(5) 0.2766(10) 0.5055(16)
C17_4 C 0.7857(7) 0.3243(13) 0.6522(17)
H8_4 H 0.7710 0.3260 0.7403
O8_4 O 0.6021(3) 0.0325(4) 0.3113(8)
C22_4 C 0.6138(3) 0.0810(5) 0.4510(8)
C23_4 C 0.6543(5) 0.1304(7) 0.4634(10)
C24_4 C 0.6766(6) 0.1297(11) 0.3304(15)
H13_4 H 0.6663 0.0986 0.2300
C25_4 C 0.6703(7) 0.1800(12) 0.6061(17)
H14_4 H 0.6555 0.1824 0.6943
C26_4 C 0.7073(6) 0.2264(12) 0.6240(16)
H15_4 H 0.7171 0.2593 0.7223
C27_4 C 0.7298(5) 0.2234(10) 0.4945(16)
C28_4 C 0.7143(7) 0.1757(13) 0.3478(17)
H16_4 H 0.7290 0.1740 0.2597
O2 O 0.4700(3) 0.8473(3) 0.3085(7)
C1_4 C 0.5000 0.8096(6) 0.2500
C2_4 C 0.5000 0.7149(5) 0.2500
C3_3 C 0.4646(5) 0.3021(5) 0.2755(12)
H1_3 H 0.4407 0.2741 0.2945
C4_4 C 0.5000 0.2550(5) 0.2500
C5_4 C 0.5000 0.1600(5) 0.2500
C6_4 C 0.5000 0.5322(6) 0.2500
O4_3 O 0.4700(3) 0.1231(3) 0.3069(6)
C7_4 C 0.5000 0.4377(5) 0.2500
C8_3 C 0.4678(5) 0.5799(4) 0.2933(13)
H2_3 H 0.4456 0.5510 0.3248
C10_3 C 0.4655(5) 0.3907(5) 0.2722(14)
H3_3 H 0.4414 0.4197 0.2857
C11_3 C 0.4664(5) 0.6676(5) 0.2926(15)
H4_3 H 0.4435 0.6956 0.3201
O6 O 0.5300(3) 0.8473(3) 0.1915(7)
C18_3 C 0.5354(5) 0.3021(5) 0.2245(12)
H9_3 H 0.5593 0.2741 0.2055
O7_3 O 0.5300(3) 0.1231(3) 0.1931(6)
C19_3 C 0.5322(5) 0.5799(4) 0.2067(13)
H10_3 H 0.5544 0.5510 0.1752
C20_3 C 0.5345(5) 0.3907(5) 0.2278(14)
H11_3 H 0.5586 0.4197 0.2143
C21_3 C 0.5336(5) 0.6676(5) 0.2074(15)
H12_3 H 0.5565 0.6956 0.1799
C1_5 C -0.0000 0.3096(6) 0.2500
C2_5 C -0.0000 0.2149(5) 0.2500
C6_5 C -0.0000 0.0322(6) 0.2500
O6_2 O 0.0300(3) 0.3473(3) 0.1915(7)
C19_4 C 0.0322(5) 0.0799(4) 0.2067(13)
H10_4 H 0.0544 0.0510 0.1752
C21_4 C 0.0336(5) 0.1676(5) 0.2074(15)
H12_4 H 0.0565 0.1956 0.1799
C4_5 C -0.0000 0.7550(5) 0.2500
C5_5 C 0.0000 0.6600(5) 0.2500
C7_5 C -0.0000 0.9377(5) 0.2500
C18_4 C 0.0354(5) 0.8021(5) 0.2245(12)
H9_4 H 0.0593 0.7741 0.2055
O7_4 O 0.0300(3) 0.6231(3) 0.1931(6)
C20_4 C 0.0345(5) 0.8907(5) 0.2278(14)
H11_4 H 0.0586 0.9197 0.2143
O2_2 O 0.9700(3) 0.3473(3) 0.3085(7)
C1_6 C 1.0000 0.3096(6) 0.2500
C2_6 C 1.0000 0.2149(5) 0.2500
C6_6 C 1.0000 0.0322(6) 0.2500
C8_4 C 0.9678(5) 0.0799(4) 0.2933(13)
H2_4 H 0.9456 0.0510 0.3248
C11_4 C 0.9664(5) 0.1676(5) 0.2926(15)
H4_4 H 0.9435 0.1956 0.3201
C3_4 C 0.9646(5) 0.8021(5) 0.2755(12)
H1_4 H 0.9407 0.7741 0.2945
C4_6 C 1.0000 0.7550(5) 0.2500
C5_6 C 1.0000 0.6600(5) 0.2500
O4_4 O 0.9700(3) 0.6231(3) 0.3069(6)
C7_6 C 1.0000 0.9377(5) 0.2500
C10_4 C 0.9655(5) 0.8907(5) 0.2722(14)
H3_4 H 0.9414 0.9197 0.2857
loop_
_geom_bond_atom_site_label_1
_geom_bond_atom_site_label_2
_geom_bond_site_symmetry_1
_geom_bond_site_symmetry_2
O11 Zr1 1_555 1_555
O12 Zr1 1_555 1_555
O13 Zr1 1_555 1_555
O14 Zr2 1_555 1_555
O16 Zr2 1_555 1_555
O17 Zr1 1_555 1_555
Zr2 O11 1_555 1_555
Zr2 O12 1_555 1_555
H6 C14 1_555 1_555
C15 C14 1_555 1_555
H7 C15 1_555 1_555
O8 C22 1_555 1_555
C23 C22 1_555 1_555
C24 C23 1_555 1_555
H13 C24 1_555 1_555
C28 C24 1_555 1_555
H16 C28 1_555 1_555
Zr7 O10 1_555 1_555
Zr9 O5 1_555 1_555
Zr10 O8 1_555 1_555
C27 C28 1_555 1_555
O10 Zr9 1_555 1_555
O1 Zr7 1_555 1_555
O13 C1 1_555 1_555
C1 C2 1_555 1_555
C2 C11 1_555 1_555
C3 H1 1_555 1_555
C4 C3 1_555 1_555
C5 C4 1_555 1_555
C6 C7 1_555 1_555
C7 C10 1_555 1_555
C8 C6 1_555 1_555
H2 C8 1_555 1_555
C9 O3 1_555 1_555
C10 C3 1_555 1_555
H3 C10 1_555 1_555
C11 C8 1_555 1_555
H4 C11 1_555 1_555
C12 C9 1_555 1_555
C13 C12 1_555 1_555
H5 C13 1_555 1_555
C17 C13 1_555 1_555
H8 C17 1_555 1_555
O14 C1 1_555 1_555
C18 C4 1_555 1_555
H9 C18 1_555 1_555
O7 C5 1_555 1_555
C19 C6 1_555 1_555
H10 C19 1_555 1_555
C20 C7 1_555 1_555
H11 C20 1_555 1_555
C21 C2 1_555 1_555
H12 C21 1_555 1_555
O9 Zr5 1_555 1_555
H14 C25 1_555 1_555
C26 C25 1_555 1_555
H15 C26 1_555 1_555
Zr9 O1 1_555 1_555
C5 O4 1_555 1_555
C16 C17 1_555 1_555
C18 C20 1_555 1_555
C19 C21 1_555 1_555
C9_2 O15 1_555 1_555
O5_2 C9_2 1_555 1_555
C12_2 C9_2 1_555 1_555
C13_2 C12_2 1_555 1_555
H5_2 C13_2 1_555 1_555
C14_2 C12_2 1_555 1_555
H6_2 C14_2 1_555 1_555
C15_2 C14_2 1_555 1_555
H7_2 C15_2 1_555 1_555
C16_2 C15_2 1_555 1_555
C17_2 C13_2 1_555 1_555
H8_2 C17_2 1_555 1_555
O8_2 C22_2 1_555 1_555
C22_2 O9_2 1_555 1_555
O9_2 Zr5_2 1_555 1_555
C23_2 C22_2 1_555 1_555
C24_2 C23_2 1_555 1_555
H13_2 C24_2 1_555 1_555
C25_2 C23_2 1_555 1_555
H14_2 C25_2 1_555 1_555
C26_2 C25_2 1_555 1_555
H15_2 C26_2 1_555 1_555
C27_2 C16_2 1_555 1_555
C28_2 C24_2 1_555 1_555
H16_2 C28_2 1_555 1_555
Zr7 O5_2 1_555 1_555
Zr10_2 O8_2 1_555 1_555
C16_2 C17_2 1_555 1_555
C26_2 C27_2 1_555 1_555
C27_2 C28_2 1_555 1_555
H6_3 C14_3 1_555 1_555
C15_3 C14_3 1_555 1_555
H7_3 C15_3 1_555 1_555
O8_3 C22_3 1_555 1_555
C23_3 C22_3 1_555 1_555
C24_3 C23_3 1_555 1_555
H13_3 C24_3 1_555 1_555
C28_3 C24_3 1_555 1_555
H16_3 C28_3 1_555 1_555
Zr10_2 O5_3 1_555 1_555
C27_3 C28_3 1_555 1_555
Zr5_2 O1_2 1_555 1_555
C3_2 H1_2 1_555 1_555
O3_2 Zr5_2 1_555 1_555
C4_2 C3_2 1_555 1_555
C5_2 C4_2 1_555 1_555
O4_2 Zr5_2 1_555 1_555
C7_2 C10_2 1_555 1_555
C9_3 O3_2 1_555 1_555
C10_2 C3_2 1_555 1_555
H3_2 C10_2 1_555 1_555
C12_3 C9_3 1_555 1_555
C13_3 C12_3 1_555 1_555
H5_3 C13_3 1_555 1_555
C17_3 C13_3 1_555 1_555
H8_3 C17_3 1_555 1_555
H14_3 C25_3 1_555 1_555
C26_3 C25_3 1_555 1_555
H15_3 C26_3 1_555 1_555
Zr10_2 O1_2 1_555 1_555
O12_2 Zr5_2 1_555 1_555
O13_2 Zr5_2 1_555 1_555
C5_2 O4_2 1_555 1_555
C16_3 C17_3 1_555 1_555
O13_2 C1_2 1_555 1_555
C1_2 C2_2 1_555 1_555
C2_2 C11_2 1_555 1_555
C8_2 C6_2 1_555 1_555
H2_2 C8_2 1_555 1_555
C11_2 C8_2 1_555 1_555
H4_2 C11_2 1_555 1_555
Zr10 O10_2 1_555 1_555
C5_3 C4_3 1_555 1_555
C18_2 C4_3 1_555 1_555
H9_2 C18_2 1_555 1_555
O7_2 C5_3 1_555 1_555
C20_2 C7_3 1_555 1_555
H11_2 C20_2 1_555 1_555
Zr5 O7_2 1_555 1_555
Zr10 O11_2 1_555 1_555
O14_2 Zr5 1_555 1_555
O15_2 Zr5 1_555 1_555
C18_2 C20_2 1_555 1_555
Zr5 O11_2 1_555 1_555
C1_3 C2_3 1_555 1_555
O14_2 C1_3 1_555 1_555
C19_2 C6_3 1_555 1_555
H10_2 C19_2 1_555 1_555
C21_2 C2_3 1_555 1_555
H12_2 C21_2 1_555 1_555
C19_2 C21_2 1_555 1_555
C9_4 O15_2 1_555 1_555
O5_4 C9_4 1_555 1_555
C12_4 C9_4 1_555 1_555
C13_4 C12_4 1_555 1_555
H5_4 C13_4 1_555 1_555
C14_4 C12_4 1_555 1_555
H6_4 C14_4 1_555 1_555
C15_4 C14_4 1_555 1_555
H7_4 C15_4 1_555 1_555
C16_4 C15_4 1_555 1_555
C17_4 C13_4 1_555 1_555
H8_4 C17_4 1_555 1_555
O8_4 C22_4 1_555 1_555
C22_4 O17 1_555 1_555
C23_4 C22_4 1_555 1_555
C24_4 C23_4 1_555 1_555
H13_4 C24_4 1_555 1_555
C25_4 C23_4 1_555 1_555
H14_4 C25_4 1_555 1_555
C26_4 C25_4 1_555 1_555
H15_4 C26_4 1_555 1_555
C27_4 C16_4 1_555 1_555
C28_4 C24_4 1_555 1_555
H16_4 C28_4 1_555 1_555
Zr10 O5_4 1_555 1_555
C16_4 C17_4 1_555 1_555
C26_4 C27_4 1_555 1_555
C27_4 C28_4 1_555 1_555
O2 C1_4 1_555 1_555
C1_4 C2_4 1_555 1_555
C2_4 C11_3 1_555 1_555
C3_3 H1_3 1_555 1_555
C4_4 C3_3 1_555 1_555
C5_4 C4_4 1_555 1_555
C6_4 C7_4 1_555 1_555
C7_4 C10_3 1_555 1_555
C8_3 C6_4 1_555 1_555
H2_3 C8_3 1_555 1_555
C10_3 C3_3 1_555 1_555
H3_3 C10_3 1_555 1_555
C11_3 C8_3 1_555 1_555
H4_3 C11_3 1_555 1_555
O6 C1_4 1_555 1_555
C18_3 C4_4 1_555 1_555
H9_3 C18_3 1_555 1_555
O7_3 C5_4 1_555 1_555
C19_3 C6_4 1_555 1_555
H10_3 C19_3 1_555 1_555
C20_3 C7_4 1_555 1_555
H11_3 C20_3 1_555 1_555
C21_3 C2_4 1_555 1_555
H12_3 C21_3 1_555 1_555
Zr7 O2 1_555 1_555
Zr9 O6 1_555 1_555
C5_4 O4_3 1_555 1_555
C18_3 C20_3 1_555 1_555
C19_3 C21_3 1_555 1_555
C1_5 C2_5 1_555 1_555
O6_2 C1_5 1_555 1_555
C19_4 C6_5 1_555 1_555
H10_4 C19_4 1_555 1_555
C21_4 C2_5 1_555 1_555
H12_4 C21_4 1_555 1_555
Zr10_2 O6_2 1_555 1_555
C19_4 C21_4 1_555 1_555
C5_5 C4_5 1_555 1_555
C18_4 C4_5 1_555 1_555
H9_4 C18_4 1_555 1_555
O7_4 C5_5 1_555 1_555
C20_4 C7_5 1_555 1_555
H11_4 C20_4 1_555 1_555
Zr10_2 O7_4 1_555 1_555
C18_4 C20_4 1_555 1_555
O2_2 C1_6 1_555 1_555
C1_6 C2_6 1_555 1_555
C2_6 C11_4 1_555 1_555
C8_4 C6_6 1_555 1_555
H2_4 C8_4 1_555 1_555
C11_4 C8_4 1_555 1_555
H4_4 C11_4 1_555 1_555
Zr10 O2_2 1_555 1_555
C3_4 H1_4 1_555 1_555
C4_6 C3_4 1_555 1_555
C5_6 C4_6 1_555 1_555
O4_4 Zr10 1_555 1_555
C7_6 C10_4 1_555 1_555
C10_4 C3_4 1_555 1_555
H3_4 C10_4 1_555 1_555
C5_6 O4_4 1_555 1_555

#END
