
###############################################################################
#
# This file contains modified crystal structure data generated from the
# MOF subset of the Cambridge Structural Database (CSD) v543 
# hosted by the Cambridge Crystallographic Data Centre (CCDC).
#
# This work is licensed under the Creative Commons
# Attribution-NonCommercial-ShareAlike 4.0 International License.
# To view a copy of this license, visit
# http://creativecommons.org/licenses/by-nc-sa/4.0/
# or send a letter to
# Creative Commons, PO Box 1866, Mountain View, CA 94042, USA.
#
# CIF created using the CSD Python API on 29 September 2022
# The structure has been converted into the P1 space group
# The structure has a 3D framework
# The original CSD entry ZOGROF is in the monoclinic crystal system
# The framework has been calculated to contain at least 10.0% void space
# The void calculation uses a probe of radius 1.32A, grid spacing 0.4
#
###############################################################################

data_ZOGROF
_chemical_formula_moiety         '(C124 H64 O31 Zr3)n'
_symmetry_cell_setting           triclinic
_symmetry_space_group_name_H-M   'P 1'
_symmetry_Int_Tables_number      1
_space_group_name_Hall           'P 1'
loop_
_symmetry_equiv_pos_site_id
_symmetry_equiv_pos_as_xyz
1 x,y,z
_cell_length_a                   31.8175(12)
_cell_length_b                   15.51771(24)
_cell_length_c                   7.81106(99)
_cell_angle_alpha                90
_cell_angle_beta                 102.5912(94)
_cell_angle_gamma                90
_cell_volume                     3763.84
loop_
_atom_site_label
_atom_site_type_symbol
_atom_site_fract_x
_atom_site_fract_y
_atom_site_fract_z
_atom_site_U_iso_or_equiv
_atom_site_thermal_displace_type
C1 C 0.270288 0.275490 0.007995 0.0203 Uiso
C4 C 0.346331 0.371030 0.03796 0.0203 Uiso
C5 C 0.322641 0.376301 0.16933 0.0203 Uiso
C6 C 0.284620 0.328531 0.154347 0.0203 Uiso
C7 C 0.386906 0.422010 0.05395 0.0203 Uiso
O3 O 0.398846 0.472578 0.181947 0.0203 Uiso
H3 H 0.332150 0.411491 0.266427 0.0507 Uiso
H4 H 0.268904 0.332028 0.241504 0.0507 Uiso
C19 C 0.206023 0.229781 0.123375 0.0203 Uiso
C20 C 0.168002 0.182011 0.108392 0.0203 Uiso
O6 O 0.090788 0.085532 0.060553 0.0203 Uiso
H9 H 0.152285 0.185508 0.195549 0.0507 Uiso
H10 H 0.215532 0.264971 0.220472 0.0507 Uiso
Zr5 Zr 0.458738(86) 0.51351(22) 0.34121(52) 0.0203 Uiso
Zr8 Zr 0.041262(86) 0.01351(22) 0.15879(52) 0.0203 Uiso
O1 O 0.02795(27) 0.03291(80) 0.4013(24) 0.0203 Uiso
C2 C 0.293977 0.270219 0.876625 0.0203 Uiso
C3 C 0.331998 0.317989 0.891608 0.0203 Uiso
O2 O 0.409212 0.414468 0.939447 0.0203 Uiso
H1 H 0.347715 0.314492 0.804451 0.0507 Uiso
H2 H 0.284468 0.235029 0.779528 0.0507 Uiso
C8 C -0.000 0.534406 0.750 0.0203 Uiso
C9 C 0.037606 0.579573 0.740916 0.0203 Uiso
C10 C 0.037606 0.669906 0.740916 0.0203 Uiso
C11 C -0.000 0.715073 0.750 0.0203 Uiso
C12 C -0.000 0.438004 0.750 0.0203 Uiso
C13 C 0.031703 0.392837 0.687211 0.0203 Uiso
C14 C 0.031703 0.302504 0.687211 0.0203 Uiso
C15 C -0.000 0.257337 0.750 0.0203 Uiso
C16 C -0.000 0.811475 0.750 0.0203 Uiso
C17 C -0.000 0.160935 0.750 0.0203 Uiso
O4 O 0.028725 0.852157 0.694542 0.0203 Uiso
O5 O 0.029487 0.120253 0.699672 0.0203 Uiso
H5 H 0.063897 0.701483 0.734565 0.0507 Uiso
H6 H 0.063897 0.547996 0.734565 0.0507 Uiso
H7 H 0.053867 0.270927 0.643315 0.0507 Uiso
H8 H 0.053867 0.424414 0.643315 0.0507 Uiso
C18 C 0.229712 0.224510 0.992005 0.0203 Uiso
C21 C 0.153669 0.128970 0.96204 0.0203 Uiso
C22 C 0.177359 0.123699 0.83067 0.0203 Uiso
C23 C 0.215380 0.171469 0.845653 0.0203 Uiso
C24 C 0.113094 0.077990 0.94605 0.0203 Uiso
O7 O 0.101154 0.027422 0.818053 0.0203 Uiso
H11 H 0.167850 0.088509 0.733573 0.0507 Uiso
H12 H 0.231096 0.167972 0.758496 0.0507 Uiso
Zr6 Zr 0.458738(86) 0.48649(22) 0.84121(52) 0.0203 Uiso
Zr9 Zr 0.041262(86) 0.98649(22) 0.65879(52) 0.0203 Uiso
O12 O 0.02795(27) 0.96709(80) 0.9013(24) 0.0203 Uiso
O13 O 0.090788 0.914468 0.560553 0.0203 Uiso
C8_2 C 1.000 0.534406 0.750 0.0203 Uiso
C11_2 C 1.000 0.715073 0.750 0.0203 Uiso
C12_2 C 1.000 0.438004 0.750 0.0203 Uiso
C15_2 C 1.000 0.257337 0.750 0.0203 Uiso
C16_2 C 1.000 0.811475 0.750 0.0203 Uiso
C17_2 C 1.000 0.160935 0.750 0.0203 Uiso
C25 C 0.962394 0.579573 0.759084 0.0203 Uiso
C26 C 0.962394 0.669906 0.759084 0.0203 Uiso
C27 C 0.968297 0.392837 0.812789 0.0203 Uiso
C28 C 0.968297 0.302504 0.812789 0.0203 Uiso
O8 O 0.971275 0.852157 0.805458 0.0203 Uiso
O9 O 0.970513 0.120253 0.800328 0.0203 Uiso
H13 H 0.936103 0.701483 0.765435 0.0507 Uiso
H14 H 0.936103 0.547996 0.765435 0.0507 Uiso
H15 H 0.946133 0.270927 0.856685 0.0507 Uiso
H16 H 0.946133 0.424414 0.856685 0.0507 Uiso
Zr2 Zr 0.958738(86) 0.01351(22) 0.34121(52) 0.0203 Uiso
Zr4 Zr 0.958738(86) 0.98649(22) 0.84121(52) 0.0203 Uiso
O11 O 0.97205(27) 0.03291(80) 0.0987(24) 0.0203 Uiso
O14 O 0.909212 0.085532 0.439447 0.0203 Uiso
O16 O 0.971275 0.147843 0.305458 0.0203 Uiso
O10 O 0.97205(27) 0.96709(80) 0.5987(24) 0.0203 Uiso
O15 O 0.898846 0.972578 0.181947 0.0203 Uiso
O18 O 0.970513 0.879747 0.300328 0.0203 Uiso
O16_2 O 0.028725 0.147843 0.194542 0.0203 Uiso
O15_2 O 0.101154 0.972578 0.318053 0.0203 Uiso
O18_2 O 0.029487 0.879747 0.199672 0.0203 Uiso
C1_2 C 0.729712 0.275490 0.492005 0.0203 Uiso
C2_2 C 0.706023 0.270219 0.623375 0.0203 Uiso
C3_2 C 0.668002 0.317989 0.608392 0.0203 Uiso
C4_2 C 0.653669 0.371030 0.46204 0.0203 Uiso
C5_2 C 0.677359 0.376301 0.33067 0.0203 Uiso
C6_2 C 0.715380 0.328531 0.345653 0.0203 Uiso
C7_2 C 0.613094 0.422010 0.44605 0.0203 Uiso
O2_2 O 0.590788 0.414468 0.560553 0.0203 Uiso
O3_2 O 0.601154 0.472578 0.318053 0.0203 Uiso
H1_2 H 0.652285 0.314492 0.695549 0.0507 Uiso
H2_2 H 0.715532 0.235029 0.720472 0.0507 Uiso
H3_2 H 0.667850 0.411491 0.233573 0.0507 Uiso
H4_2 H 0.731096 0.332028 0.258496 0.0507 Uiso
C18_2 C 0.770288 0.224510 0.507995 0.0203 Uiso
C19_2 C 0.793977 0.229781 0.376625 0.0203 Uiso
C20_2 C 0.831998 0.182011 0.391608 0.0203 Uiso
C21_2 C 0.846331 0.128970 0.53796 0.0203 Uiso
C22_2 C 0.822641 0.123699 0.66933 0.0203 Uiso
C23_2 C 0.784620 0.171469 0.654347 0.0203 Uiso
C24_2 C 0.886906 0.077990 0.55395 0.0203 Uiso
O7_2 O 0.898846 0.027422 0.681947 0.0203 Uiso
H9_2 H 0.847715 0.185508 0.304451 0.0507 Uiso
H10_2 H 0.784468 0.264971 0.279528 0.0507 Uiso
H11_2 H 0.832150 0.088509 0.766427 0.0507 Uiso
H12_2 H 0.768904 0.167972 0.741504 0.0507 Uiso
Zr5_2 Zr 0.541262(86) 0.51351(22) 0.15879(52) 0.0203 Uiso
Zr6_2 Zr 0.541262(86) 0.48649(22) 0.65879(52) 0.0203 Uiso
O13_2 O 0.909212 0.914468 0.939447 0.0203 Uiso
C8_3 C 0.500 0.034406 0.750 0.0203 Uiso
C9_2 C 0.462394 0.079573 0.759084 0.0203 Uiso
C10_2 C 0.462394 0.169906 0.759084 0.0203 Uiso
C11_3 C 0.500 0.215073 0.750 0.0203 Uiso
C16_3 C 0.500 0.311475 0.750 0.0203 Uiso
O4_2 O 0.471275 0.352157 0.805458 0.0203 Uiso
H5_2 H 0.436103 0.201483 0.765435 0.0507 Uiso
H6_2 H 0.436103 0.047996 0.765435 0.0507 Uiso
C25_2 C 0.537606 0.079573 0.740916 0.0203 Uiso
C26_2 C 0.537606 0.169906 0.740916 0.0203 Uiso
O8_2 O 0.528725 0.352157 0.694542 0.0203 Uiso
H13_2 H 0.563897 0.201483 0.734565 0.0507 Uiso
H14_2 H 0.563897 0.047996 0.734565 0.0507 Uiso
O1_2 O 0.47205(27) 0.53291(80) 0.0987(24) 0.0203 Uiso
O11_2 O 0.52795(27) 0.53291(80) 0.4013(24) 0.0203 Uiso
O14_2 O 0.590788 0.585532 0.060553 0.0203 Uiso
O16_3 O 0.528725 0.647843 0.194542 0.0203 Uiso
O18_3 O 0.529487 0.379747 0.199672 0.0203 Uiso
C1_3 C 0.229712 0.775490 0.492005 0.0203 Uiso
C2_3 C 0.206023 0.770219 0.623375 0.0203 Uiso
C3_3 C 0.168002 0.817989 0.608392 0.0203 Uiso
C4_3 C 0.153669 0.871030 0.46204 0.0203 Uiso
C5_3 C 0.177359 0.876301 0.33067 0.0203 Uiso
C6_3 C 0.215380 0.828531 0.345653 0.0203 Uiso
C7_3 C 0.113094 0.922010 0.44605 0.0203 Uiso
H1_3 H 0.152285 0.814492 0.695549 0.0507 Uiso
H2_3 H 0.215532 0.735029 0.720472 0.0507 Uiso
H3_3 H 0.167850 0.911491 0.233573 0.0507 Uiso
H4_3 H 0.231096 0.832028 0.258496 0.0507 Uiso
C12_3 C 0.500 0.938004 0.750 0.0203 Uiso
C13_2 C 0.468297 0.892837 0.812789 0.0203 Uiso
C14_2 C 0.468297 0.802504 0.812789 0.0203 Uiso
C15_3 C 0.500 0.757337 0.750 0.0203 Uiso
C17_3 C 0.500 0.660935 0.750 0.0203 Uiso
O5_2 O 0.470513 0.620253 0.800328 0.0203 Uiso
H7_2 H 0.446133 0.770927 0.856685 0.0507 Uiso
H8_2 H 0.446133 0.924414 0.856685 0.0507 Uiso
C18_3 C 0.270288 0.724510 0.507995 0.0203 Uiso
C19_3 C 0.293977 0.729781 0.376625 0.0203 Uiso
C20_3 C 0.331998 0.682011 0.391608 0.0203 Uiso
C21_3 C 0.346331 0.628970 0.53796 0.0203 Uiso
C22_3 C 0.322641 0.623699 0.66933 0.0203 Uiso
C23_3 C 0.284620 0.671469 0.654347 0.0203 Uiso
C24_3 C 0.386906 0.577990 0.55395 0.0203 Uiso
O6_2 O 0.409212 0.585532 0.439447 0.0203 Uiso
O7_3 O 0.398846 0.527422 0.681947 0.0203 Uiso
H9_3 H 0.347715 0.685508 0.304451 0.0507 Uiso
H10_3 H 0.284468 0.764971 0.279528 0.0507 Uiso
H11_3 H 0.332150 0.588509 0.766427 0.0507 Uiso
H12_3 H 0.268904 0.667972 0.741504 0.0507 Uiso
C27_2 C 0.531703 0.892837 0.687211 0.0203 Uiso
C28_2 C 0.531703 0.802504 0.687211 0.0203 Uiso
O9_2 O 0.529487 0.620253 0.699672 0.0203 Uiso
H15_2 H 0.553867 0.770927 0.643315 0.0507 Uiso
H16_2 H 0.553867 0.924414 0.643315 0.0507 Uiso
O10_2 O 0.52795(27) 0.46709(80) 0.9013(24) 0.0203 Uiso
O12_2 O 0.47205(27) 0.46709(80) 0.5987(24) 0.0203 Uiso
C1_4 C 0.770288 0.775490 0.007995 0.0203 Uiso
C4_4 C 0.846331 0.871030 0.03796 0.0203 Uiso
C5_4 C 0.822641 0.876301 0.16933 0.0203 Uiso
C6_4 C 0.784620 0.828531 0.154347 0.0203 Uiso
C7_4 C 0.886906 0.922010 0.05395 0.0203 Uiso
H3_4 H 0.832150 0.911491 0.266427 0.0507 Uiso
H4_4 H 0.768904 0.832028 0.241504 0.0507 Uiso
C19_4 C 0.706023 0.729781 0.123375 0.0203 Uiso
C20_4 C 0.668002 0.682011 0.108392 0.0203 Uiso
H9_4 H 0.652285 0.685508 0.195549 0.0507 Uiso
H10_4 H 0.715532 0.764971 0.220472 0.0507 Uiso
C2_4 C 0.793977 0.770219 0.876625 0.0203 Uiso
C3_4 C 0.831998 0.817989 0.891608 0.0203 Uiso
H1_4 H 0.847715 0.814492 0.804451 0.0507 Uiso
H2_4 H 0.784468 0.735029 0.779528 0.0507 Uiso
C18_4 C 0.729712 0.724510 0.992005 0.0203 Uiso
C21_4 C 0.653669 0.628970 0.96204 0.0203 Uiso
C22_4 C 0.677359 0.623699 0.83067 0.0203 Uiso
C23_4 C 0.715380 0.671469 0.845653 0.0203 Uiso
C24_4 C 0.613094 0.577990 0.94605 0.0203 Uiso
O7_4 O 0.601154 0.527422 0.818053 0.0203 Uiso
H11_4 H 0.667850 0.588509 0.733573 0.0507 Uiso
H12_4 H 0.731096 0.667972 0.758496 0.0507 Uiso
O16_4 O 0.471275 0.647843 0.305458 0.0203 Uiso
O18_4 O 0.470513 0.379747 0.300328 0.0203 Uiso
C8_4 C 0.000 0.465594 0.250 0.0203 Uiso
C11_4 C 0.000 0.284927 0.250 0.0203 Uiso
C12_4 C 0.000 0.561996 0.250 0.0203 Uiso
C15_4 C 0.000 0.742663 0.250 0.0203 Uiso
C16_4 C 0.000 0.188525 0.250 0.0203 Uiso
C17_4 C 0.000 0.839065 0.250 0.0203 Uiso
C25_3 C 0.037606 0.420427 0.240916 0.0203 Uiso
C26_3 C 0.037606 0.330094 0.240916 0.0203 Uiso
C27_3 C 0.031703 0.607163 0.187211 0.0203 Uiso
C28_3 C 0.031703 0.697496 0.187211 0.0203 Uiso
H13_3 H 0.063897 0.298517 0.234565 0.0507 Uiso
H14_3 H 0.063897 0.452004 0.234565 0.0507 Uiso
H15_3 H 0.053867 0.729073 0.143315 0.0507 Uiso
H16_3 H 0.053867 0.575586 0.143315 0.0507 Uiso
C8_5 C 1.000 0.465594 0.250 0.0203 Uiso
C9_3 C 0.962394 0.420427 0.259084 0.0203 Uiso
C10_3 C 0.962394 0.330094 0.259084 0.0203 Uiso
C11_5 C 1.000 0.284927 0.250 0.0203 Uiso
C12_5 C 1.000 0.561996 0.250 0.0203 Uiso
C13_3 C 0.968297 0.607163 0.312789 0.0203 Uiso
C14_3 C 0.968297 0.697496 0.312789 0.0203 Uiso
C15_5 C 1.000 0.742663 0.250 0.0203 Uiso
C16_5 C 1.000 0.188525 0.250 0.0203 Uiso
C17_5 C 1.000 0.839065 0.250 0.0203 Uiso
H5_3 H 0.936103 0.298517 0.265435 0.0507 Uiso
H6_3 H 0.936103 0.452004 0.265435 0.0507 Uiso
H7_3 H 0.946133 0.729073 0.356685 0.0507 Uiso
H8_3 H 0.946133 0.575586 0.356685 0.0507 Uiso
C12_6 C 0.500 0.061996 0.250 0.0203 Uiso
C13_4 C 0.531703 0.107163 0.187211 0.0203 Uiso
C14_4 C 0.531703 0.197496 0.187211 0.0203 Uiso
C15_6 C 0.500 0.242663 0.250 0.0203 Uiso
C17_6 C 0.500 0.339065 0.250 0.0203 Uiso
H7_4 H 0.553867 0.229073 0.143315 0.0507 Uiso
H8_4 H 0.553867 0.075586 0.143315 0.0507 Uiso
C27_4 C 0.468297 0.107163 0.312789 0.0203 Uiso
C28_4 C 0.468297 0.197496 0.312789 0.0203 Uiso
H15_4 H 0.446133 0.229073 0.356685 0.0507 Uiso
H16_4 H 0.446133 0.075586 0.356685 0.0507 Uiso
C8_6 C 0.500 0.965594 0.250 0.0203 Uiso
C9_4 C 0.537606 0.920427 0.240916 0.0203 Uiso
C10_4 C 0.537606 0.830094 0.240916 0.0203 Uiso
C11_6 C 0.500 0.784927 0.250 0.0203 Uiso
C16_6 C 0.500 0.688525 0.250 0.0203 Uiso
H5_4 H 0.563897 0.798517 0.234565 0.0507 Uiso
H6_4 H 0.563897 0.952004 0.234565 0.0507 Uiso
C25_4 C 0.462394 0.920427 0.259084 0.0203 Uiso
C26_4 C 0.462394 0.830094 0.259084 0.0203 Uiso
H13_4 H 0.436103 0.798517 0.265435 0.0507 Uiso
H14_4 H 0.436103 0.952004 0.265435 0.0507 Uiso
loop_
_geom_bond_atom_site_label_1
_geom_bond_atom_site_label_2
_geom_bond_site_symmetry_1
_geom_bond_site_symmetry_2
C4 C5 1_555 1_555
C5 C6 1_555 1_555
C6 C1 1_555 1_555
C7 C4 1_555 1_555
O3 C7 1_555 1_555
H3 C5 1_555 1_555
H4 C6 1_555 1_555
C20 C19 1_555 1_555
H9 C20 1_555 1_555
H10 C19 1_555 1_555
Zr5 O3 1_555 1_555
Zr8 O6 1_555 1_555
C2 C3 1_555 1_555
H1 C3 1_555 1_555
H2 C2 1_555 1_555
C8 C9 1_555 1_555
C9 C10 1_555 1_555
C10 C11 1_555 1_555
C11 C16 1_555 1_555
C12 C8 1_555 1_555
C13 C12 1_555 1_555
C14 C13 1_555 1_555
C15 C14 1_555 1_555
C16 O4 1_555 1_555
C17 C15 1_555 1_555
O4 Zr9 1_555 1_555
H5 C10 1_555 1_555
H6 C9 1_555 1_555
H7 C14 1_555 1_555
H8 C13 1_555 1_555
C22 C21 1_555 1_555
C23 C18 1_555 1_555
C24 C21 1_555 1_555
H11 C22 1_555 1_555
H12 C23 1_555 1_555
Zr6 O2 1_555 1_555
Zr8 O1 1_555 1_555
C17 O5 1_555 1_555
C22 C23 1_555 1_555
C24 O7 1_555 1_555
O12 Zr9 1_555 1_555
O13 Zr9 1_555 1_555
C11_2 C16_2 1_555 1_555
C12_2 C8_2 1_555 1_555
C17_2 C15_2 1_555 1_555
C25 C8_2 1_555 1_555
C26 C11_2 1_555 1_555
C27 C12_2 1_555 1_555
C28 C15_2 1_555 1_555
O8 C16_2 1_555 1_555
O9 C17_2 1_555 1_555
H13 C26 1_555 1_555
H14 C25 1_555 1_555
H15 C28 1_555 1_555
H16 C27 1_555 1_555
Zr4 O8 1_555 1_555
O11 Zr2 1_555 1_555
O14 Zr2 1_555 1_555
O16 Zr2 1_555 1_555
C25 C26 1_555 1_555
C27 C28 1_555 1_555
O10 Zr4 1_555 1_555
O16_2 Zr8 1_555 1_555
C1_2 C2_2 1_555 1_555
C2_2 C3_2 1_555 1_555
C3_2 C4_2 1_555 1_555
C4_2 C5_2 1_555 1_555
C5_2 C6_2 1_555 1_555
C6_2 C1_2 1_555 1_555
C7_2 C4_2 1_555 1_555
O2_2 C7_2 1_555 1_555
O3_2 C7_2 1_555 1_555
H1_2 C3_2 1_555 1_555
H2_2 C2_2 1_555 1_555
H3_2 C5_2 1_555 1_555
H4_2 C6_2 1_555 1_555
C18_2 C1_2 1_555 1_555
C19_2 C18_2 1_555 1_555
C20_2 C19_2 1_555 1_555
C21_2 C20_2 1_555 1_555
C22_2 C21_2 1_555 1_555
C23_2 C18_2 1_555 1_555
C24_2 C21_2 1_555 1_555
O14 C24_2 1_555 1_555
H9_2 C20_2 1_555 1_555
H10_2 C19_2 1_555 1_555
H11_2 C22_2 1_555 1_555
H12_2 C23_2 1_555 1_555
Zr5_2 O3_2 1_555 1_555
Zr6_2 O2_2 1_555 1_555
C22_2 C23_2 1_555 1_555
C24_2 O7_2 1_555 1_555
O13_2 Zr4 1_555 1_555
C8_3 C9_2 1_555 1_555
C9_2 C10_2 1_555 1_555
C10_2 C11_3 1_555 1_555
C11_3 C16_3 1_555 1_555
C16_3 O4_2 1_555 1_555
O4_2 Zr6 1_555 1_555
H5_2 C10_2 1_555 1_555
H6_2 C9_2 1_555 1_555
C25_2 C8_3 1_555 1_555
C26_2 C11_3 1_555 1_555
O8_2 C16_3 1_555 1_555
H13_2 C26_2 1_555 1_555
H14_2 C25_2 1_555 1_555
Zr6_2 O8_2 1_555 1_555
C25_2 C26_2 1_555 1_555
O1_2 Zr5_2 1_555 1_555
Zr5 O1_2 1_555 1_555
O11_2 Zr5_2 1_555 1_555
O14_2 Zr5_2 1_555 1_555
O16_3 Zr5_2 1_555 1_555
O18_3 Zr5_2 1_555 1_555
Zr5 O11_2 1_555 1_555
C1_3 C2_3 1_555 1_555
C2_3 C3_3 1_555 1_555
C3_3 C4_3 1_555 1_555
C4_3 C5_3 1_555 1_555
C5_3 C6_3 1_555 1_555
C6_3 C1_3 1_555 1_555
C7_3 C4_3 1_555 1_555
O13 C7_3 1_555 1_555
O15_2 C7_3 1_555 1_555
H1_3 C3_3 1_555 1_555
H2_3 C2_3 1_555 1_555
H3_3 C5_3 1_555 1_555
H4_3 C6_3 1_555 1_555
C13_2 C12_3 1_555 1_555
C14_2 C13_2 1_555 1_555
C15_3 C14_2 1_555 1_555
C17_3 C15_3 1_555 1_555
O5_2 Zr6 1_555 1_555
H7_2 C14_2 1_555 1_555
H8_2 C13_2 1_555 1_555
C18_3 C1_3 1_555 1_555
C19_3 C18_3 1_555 1_555
C20_3 C19_3 1_555 1_555
C21_3 C20_3 1_555 1_555
C22_3 C21_3 1_555 1_555
C23_3 C18_3 1_555 1_555
C24_3 C21_3 1_555 1_555
O6_2 C24_3 1_555 1_555
O7_3 Zr6 1_555 1_555
H9_3 C20_3 1_555 1_555
H10_3 C19_3 1_555 1_555
H11_3 C22_3 1_555 1_555
H12_3 C23_3 1_555 1_555
C27_2 C12_3 1_555 1_555
C28_2 C15_3 1_555 1_555
O9_2 C17_3 1_555 1_555
H15_2 C28_2 1_555 1_555
H16_2 C27_2 1_555 1_555
O10_2 Zr6 1_555 1_555
Zr6_2 O9_2 1_555 1_555
Zr5 O6_2 1_555 1_555
O12_2 Zr6 1_555 1_555
C17_3 O5_2 1_555 1_555
C22_3 C23_3 1_555 1_555
C24_3 O7_3 1_555 1_555
C27_2 C28_2 1_555 1_555
O10_2 Zr6_2 1_555 1_555
Zr6_2 O12_2 1_555 1_555
Zr5 O12_2 1_555 1_555
C4_4 C5_4 1_555 1_555
C5_4 C6_4 1_555 1_555
C6_4 C1_4 1_555 1_555
C7_4 C4_4 1_555 1_555
O15 C7_4 1_555 1_555
H3_4 C5_4 1_555 1_555
H4_4 C6_4 1_555 1_555
C20_4 C19_4 1_555 1_555
H9_4 C20_4 1_555 1_555
H10_4 C19_4 1_555 1_555
Zr6_2 O11_2 1_555 1_555
C2_4 C3_4 1_555 1_555
H1_4 C3_4 1_555 1_555
H2_4 C2_4 1_555 1_555
C22_4 C21_4 1_555 1_555
C23_4 C18_4 1_555 1_555
C24_4 C21_4 1_555 1_555
O7_4 Zr6_2 1_555 1_555
H11_4 C22_4 1_555 1_555
H12_4 C23_4 1_555 1_555
O16_4 Zr5 1_555 1_555
O18_4 Zr5 1_555 1_555
C22_4 C23_4 1_555 1_555
C24_4 O7_4 1_555 1_555
C11_4 C16_4 1_555 1_555
C12_4 C8_4 1_555 1_555
C17_4 C15_4 1_555 1_555
C25_3 C8_4 1_555 1_555
C26_3 C11_4 1_555 1_555
C27_3 C12_4 1_555 1_555
C28_3 C15_4 1_555 1_555
O16_2 C16_4 1_555 1_555
O18_2 C17_4 1_555 1_555
H13_3 C26_3 1_555 1_555
H14_3 C25_3 1_555 1_555
H15_3 C28_3 1_555 1_555
H16_3 C27_3 1_555 1_555
C25_3 C26_3 1_555 1_555
C27_3 C28_3 1_555 1_555
C8_5 C9_3 1_555 1_555
C9_3 C10_3 1_555 1_555
C10_3 C11_5 1_555 1_555
C11_5 C16_5 1_555 1_555
C12_5 C8_5 1_555 1_555
C13_3 C12_5 1_555 1_555
C14_3 C13_3 1_555 1_555
C15_5 C14_3 1_555 1_555
C16_5 O16 1_555 1_555
C17_5 C15_5 1_555 1_555
H5_3 C10_3 1_555 1_555
H6_3 C9_3 1_555 1_555
H7_3 C14_3 1_555 1_555
H8_3 C13_3 1_555 1_555
C17_5 O18 1_555 1_555
C13_4 C12_6 1_555 1_555
C14_4 C13_4 1_555 1_555
C15_6 C14_4 1_555 1_555
C17_6 C15_6 1_555 1_555
H7_4 C14_4 1_555 1_555
H8_4 C13_4 1_555 1_555
C27_4 C12_6 1_555 1_555
C28_4 C15_6 1_555 1_555
O18_4 C17_6 1_555 1_555
H15_4 C28_4 1_555 1_555
H16_4 C27_4 1_555 1_555
C17_6 O18_3 1_555 1_555
C27_4 C28_4 1_555 1_555
C8_6 C9_4 1_555 1_555
C9_4 C10_4 1_555 1_555
C10_4 C11_6 1_555 1_555
C11_6 C16_6 1_555 1_555
C16_6 O16_3 1_555 1_555
H5_4 C10_4 1_555 1_555
H6_4 C9_4 1_555 1_555
C25_4 C8_6 1_555 1_555
C26_4 C11_6 1_555 1_555
O16_4 C16_6 1_555 1_555
H13_4 C26_4 1_555 1_555
H14_4 C25_4 1_555 1_555
C25_4 C26_4 1_555 1_555

#END
