
###############################################################################
#
# This file contains modified crystal structure data generated from the
# MOF subset of the Cambridge Structural Database (CSD) v543 
# hosted by the Cambridge Crystallographic Data Centre (CCDC).
#
# This work is licensed under the Creative Commons
# Attribution-NonCommercial-ShareAlike 4.0 International License.
# To view a copy of this license, visit
# http://creativecommons.org/licenses/by-nc-sa/4.0/
# or send a letter to
# Creative Commons, PO Box 1866, Mountain View, CA 94042, USA.
#
# CIF created using the CSD Python API on 29 September 2022
# The structure has been converted into the P1 space group
# The structure has a 3D framework
# The original CSD entry ZOGRIZ is in the monoclinic crystal system
# The framework has been calculated to contain at least 10.0% void space
# The void calculation uses a probe of radius 1.32A, grid spacing 0.4
# H atom positions have been added when not included in the experimental data
#
###############################################################################

data_ZOGRIZ
_chemical_formula_moiety         '(C96 H48 N16 O50 Zr8)n'
_symmetry_cell_setting           triclinic
_symmetry_space_group_name_H-M   'P 1'
_symmetry_Int_Tables_number      1
_space_group_name_Hall           'P 1'
loop_
_symmetry_equiv_pos_site_id
_symmetry_equiv_pos_as_xyz
1 x,y,z
_cell_length_a                   31.4689(21)
_cell_length_b                   15.36401(40)
_cell_length_c                   7.76016(86)
_cell_angle_alpha                90
_cell_angle_beta                 101.527(13)
_cell_angle_gamma                90
_cell_volume                     3676.27
loop_
_atom_site_label
_atom_site_type_symbol
_atom_site_fract_x
_atom_site_fract_y
_atom_site_fract_z
_atom_site_U_iso_or_equiv
_atom_site_thermal_displace_type
C1 C 0.281991 0.242780 0.030963 0.0128 Uiso
C3 C 0.358428 0.337765 0.065228 0.0128 Uiso
C4 C 0.335693 0.336758 0.201492 0.0128 Uiso
C5 C 0.297474 0.289265 0.18436 0.0128 Uiso
C6 C 0.241553 0.192530 0.012836 0.0128 Uiso
C10 C 0.180598 0.144030 0.131968 0.0128 Uiso
N2 N 0.218817 0.191523 0.149101 0.0128 Uiso
C11 C 0.398866 0.388014 0.083355 0.0128 Uiso
O4 O 0.407766 0.446804 0.201936 0.0128 Uiso
O6 O 0.101055 0.054527 0.07616 0.0128 Uiso
H2 H 0.34605 0.367855 0.304109 0.0507 Uiso
O7 O 0.275395 0.288288 0.316683 0.0128 Uiso
H4 H 0.165388 0.143357 0.223124 0.0507 Uiso
Zr5 Zr 0.46040(25) 0.52184(47) 0.3520(12) 0.0128 Uiso
Zr7 Zr 0.04602(25) 0.01284(48) 0.1793(13) 0.0128 Uiso
H10 H 0.273276 0.227551 0.357898 . .
N1 N 0.304727 0.243786 0.894698 0.0128 Uiso
C2 C 0.342946 0.291279 0.911831 0.0128 Uiso
C7 C 0.226070 0.146044 0.859439 0.0128 Uiso
C8 C 0.187851 0.098551 0.842306 0.0128 Uiso
C9 C 0.165115 0.097545 0.978571 0.0128 Uiso
C12 C 0.124677 0.047295 0.960444 0.0128 Uiso
O3 O 0.425152 0.372948 0.980546 0.0128 Uiso
H1 H 0.358155 0.291952 0.820675 0.0507 Uiso
H3 H 0.177493 0.067454 0.739690 0.0507 Uiso
O8 O 0.248148 0.147022 0.727116 0.0128 Uiso
N3 N 0.027051 0.574707 0.685304 0.0128 Uiso
C14 C 0.027257 0.665080 0.676593 0.0128 Uiso
C19 C 0.026627 0.388714 0.703233 0.0128 Uiso
C20 C 0.026421 0.298341 0.711945 0.0128 Uiso
O9 O 0.025961 0.847880 0.672676 0.0128 Uiso
O11 O 0.015695 0.115139 0.685674 0.0128 Uiso
H5 H 0.050816 0.693957 0.647404 0.0507 Uiso
O14 O 0.060826 0.430632 0.660863 0.0128 Uiso
H7 H 0.049843 0.266762 0.688584 0.0507 Uiso
Zr6 Zr 0.46040(25) 0.47816(47) 0.8520(12) 0.0128 Uiso
Zr8 Zr 0.04602(25) 0.98716(48) 0.6793(13) 0.0128 Uiso
O16 O 0.03030(50) 0.0381(18) 0.4286(32) 0.0128 Uiso
H9 H 0.277736 0.123304 0.769746 . .
H11 H 0.0739437 0.469901 0.758743 . .
O2 O 0.03030(50) 0.9619(18) 0.9286(32) 0.0128 Uiso
O5 O 0.113113 0.996340 0.828955 0.0128 Uiso
O19 O 0.101055 0.945473 0.57616 0.0128 Uiso
O15 O 0.97795(54) 0.0368(18) 0.0987(28) 0.0128 Uiso
C13 C 0.991834 0.531540 0.728937 0.0128 Uiso
C15 C 0.992245 0.712286 0.711514 0.0128 Uiso
C16 C 0.957028 0.669120 0.755147 0.0128 Uiso
C17 C 0.956822 0.578747 0.763858 0.0128 Uiso
C18 C 0.991616 0.435920 0.738155 0.0128 Uiso
C21 C 0.991204 0.255174 0.755578 0.0128 Uiso
C22 C 0.956193 0.302380 0.790499 0.0128 Uiso
N4 N 0.956398 0.392754 0.781788 0.0128 Uiso
C23 C 0.992463 0.807906 0.702296 0.0128 Uiso
C24 C 0.990986 0.159554 0.764795 0.0128 Uiso
O10 O 0.959155 0.851133 0.723897 0.0128 Uiso
O12 O 0.966088 0.120769 0.851937 0.0128 Uiso
H6 H 0.933607 0.700699 0.778508 0.0507 Uiso
O13 O 0.922624 0.536828 0.806229 0.0128 Uiso
H8 H 0.932634 0.273504 0.819688 0.0507 Uiso
Zr3 Zr 0.96040(25) 0.02184(47) 0.3520(12) 0.0128 Uiso
Zr4 Zr 0.96040(25) 0.97816(47) 0.8520(12) 0.0128 Uiso
O18 O 0.907766 0.053196 0.701936 0.0128 Uiso
H12 H 0.932504 0.502052 0.914696 . .
O1 O 0.97795(54) 0.9632(18) 0.5987(28) 0.0128 Uiso
O17 O 0.925152 0.872948 0.980546 0.0128 Uiso
O5_2 O 0.113113 0.003660 0.328955 0.0128 Uiso
O20 O 0.025961 0.152120 0.172676 0.0128 Uiso
C1_2 C 0.281991 0.757220 0.530963 0.0128 Uiso
N1_2 N 0.304727 0.756214 0.394698 0.0128 Uiso
C2_2 C 0.342946 0.708721 0.411831 0.0128 Uiso
C3_2 C 0.358428 0.662235 0.565228 0.0128 Uiso
C4_2 C 0.335693 0.663242 0.701492 0.0128 Uiso
C5_2 C 0.297474 0.710735 0.68436 0.0128 Uiso
C6_2 C 0.241553 0.807470 0.512836 0.0128 Uiso
C7_2 C 0.226070 0.853956 0.359439 0.0128 Uiso
C8_2 C 0.187851 0.901449 0.342306 0.0128 Uiso
C9_2 C 0.165115 0.902455 0.478571 0.0128 Uiso
C10_2 C 0.180598 0.855970 0.631968 0.0128 Uiso
N2_2 N 0.218817 0.808477 0.649101 0.0128 Uiso
C11_2 C 0.398866 0.611986 0.583355 0.0128 Uiso
C12_2 C 0.124677 0.952705 0.460444 0.0128 Uiso
O3_2 O 0.425152 0.627052 0.480546 0.0128 Uiso
O4_2 O 0.407766 0.553196 0.701936 0.0128 Uiso
H1_2 H 0.358155 0.708048 0.320675 0.0507 Uiso
H2_2 H 0.34605 0.632145 0.804109 0.0507 Uiso
O7_2 O 0.275395 0.711712 0.816683 0.0128 Uiso
H3_2 H 0.177493 0.932546 0.239690 0.0507 Uiso
O8_2 O 0.248148 0.852978 0.227116 0.0128 Uiso
H4_2 H 0.165388 0.856643 0.723124 0.0507 Uiso
N3_2 N 0.027051 0.425293 0.185304 0.0128 Uiso
C14_2 C 0.027257 0.334920 0.176593 0.0128 Uiso
C19_2 C 0.026627 0.611286 0.203233 0.0128 Uiso
C20_2 C 0.026421 0.701659 0.211945 0.0128 Uiso
O11_2 O 0.015695 0.884861 0.185674 0.0128 Uiso
H5_2 H 0.050816 0.306043 0.147404 0.0507 Uiso
O14_2 O 0.060826 0.569368 0.160863 0.0128 Uiso
H7_2 H 0.049843 0.733238 0.188584 0.0507 Uiso
H9_2 H 0.277736 0.876696 0.269746 . .
H10_2 H 0.273276 0.772449 0.857898 . .
H11_2 H 0.0739437 0.530099 0.258743 . .
O17_2 O 0.925152 0.127052 0.480546 0.0128 Uiso
O21 O 0.959155 0.148867 0.223897 0.0128 Uiso
C13_2 C 0.991834 0.468460 0.228937 0.0128 Uiso
C15_2 C 0.992245 0.287714 0.211514 0.0128 Uiso
C16_2 C 0.957028 0.330880 0.255147 0.0128 Uiso
C17_2 C 0.956822 0.421253 0.263858 0.0128 Uiso
C18_2 C 0.991616 0.564080 0.238155 0.0128 Uiso
C21_2 C 0.991204 0.744826 0.255578 0.0128 Uiso
C22_2 C 0.956193 0.697620 0.290499 0.0128 Uiso
N4_2 N 0.956398 0.607246 0.281788 0.0128 Uiso
C23_2 C 0.992463 0.192094 0.202296 0.0128 Uiso
C24_2 C 0.990986 0.840446 0.264795 0.0128 Uiso
O12_2 O 0.966088 0.879231 0.351937 0.0128 Uiso
H6_2 H 0.933607 0.299301 0.278508 0.0507 Uiso
O13_2 O 0.922624 0.463172 0.306229 0.0128 Uiso
H8_2 H 0.932634 0.726496 0.319688 0.0507 Uiso
O18_2 O 0.907766 0.946804 0.201936 0.0128 Uiso
H12_2 H 0.932504 0.497948 0.414696 . .
Zr2 Zr 0.54602(25) 0.51284(48) 0.1793(13) 0.0128 Uiso
O1_2 O 0.47795(54) 0.5368(18) 0.0987(28) 0.0128 Uiso
O2_2 O 0.53030(50) 0.5381(18) 0.4286(32) 0.0128 Uiso
C1_3 C 0.781991 0.257220 0.530963 0.0128 Uiso
N1_3 N 0.804727 0.256214 0.394698 0.0128 Uiso
C2_3 C 0.842946 0.208721 0.411831 0.0128 Uiso
C3_3 C 0.858428 0.162235 0.565228 0.0128 Uiso
C4_3 C 0.835693 0.163242 0.701492 0.0128 Uiso
C5_3 C 0.797474 0.210735 0.68436 0.0128 Uiso
C6_3 C 0.741553 0.307470 0.512836 0.0128 Uiso
C7_3 C 0.726070 0.353956 0.359439 0.0128 Uiso
C8_3 C 0.687851 0.401449 0.342306 0.0128 Uiso
C9_3 C 0.665115 0.402455 0.478571 0.0128 Uiso
C10_3 C 0.680598 0.355970 0.631968 0.0128 Uiso
N2_3 N 0.718817 0.308477 0.649101 0.0128 Uiso
C11_3 C 0.898866 0.111986 0.583355 0.0128 Uiso
C12_3 C 0.624677 0.452705 0.460444 0.0128 Uiso
O5_3 O 0.613113 0.503660 0.328955 0.0128 Uiso
O6_2 O 0.601055 0.445473 0.57616 0.0128 Uiso
H1_3 H 0.858155 0.208048 0.320675 0.0507 Uiso
H2_3 H 0.84605 0.132145 0.804109 0.0507 Uiso
O7_3 O 0.775395 0.211712 0.816683 0.0128 Uiso
H3_3 H 0.677493 0.432546 0.239690 0.0507 Uiso
O8_3 O 0.748148 0.352978 0.227116 0.0128 Uiso
H4_3 H 0.665388 0.356643 0.723124 0.0507 Uiso
C18_3 C 0.491616 0.064080 0.238155 0.0128 Uiso
C19_3 C 0.526627 0.111286 0.203233 0.0128 Uiso
C20_3 C 0.526421 0.201659 0.211945 0.0128 Uiso
C21_3 C 0.491204 0.244826 0.255578 0.0128 Uiso
C22_3 C 0.456193 0.197620 0.290499 0.0128 Uiso
N4_3 N 0.456398 0.107246 0.281788 0.0128 Uiso
C24_3 C 0.490986 0.340446 0.264795 0.0128 Uiso
O11_3 O 0.515695 0.384861 0.185674 0.0128 Uiso
O12_3 O 0.466088 0.379231 0.351937 0.0128 Uiso
O14_3 O 0.560826 0.069368 0.160863 0.0128 Uiso
H7_3 H 0.549843 0.233238 0.188584 0.0507 Uiso
H8_3 H 0.432634 0.226496 0.319688 0.0507 Uiso
Zr7_2 Zr 0.54602(25) 0.48716(48) 0.6793(13) 0.0128 Uiso
O15_2 O 0.47795(54) 0.4632(18) 0.5987(28) 0.0128 Uiso
O19_2 O 0.601055 0.554527 0.07616 0.0128 Uiso
O20_2 O 0.525961 0.652120 0.172676 0.0128 Uiso
O21_2 O 0.459155 0.648867 0.223897 0.0128 Uiso
H9_3 H 0.777736 0.376696 0.269746 . .
H10_3 H 0.773276 0.272449 0.857898 . .
H11_3 H 0.573944 0.0300985 0.258743 . .
O16_2 O 0.53030(50) 0.4619(18) 0.9286(32) 0.0128 Uiso
C13_3 C 0.491834 0.968460 0.228937 0.0128 Uiso
N3_3 N 0.527051 0.925293 0.185304 0.0128 Uiso
C14_3 C 0.527257 0.834920 0.176593 0.0128 Uiso
C15_3 C 0.492245 0.787714 0.211514 0.0128 Uiso
C16_3 C 0.457028 0.830880 0.255147 0.0128 Uiso
C17_3 C 0.456822 0.921253 0.263858 0.0128 Uiso
C23_3 C 0.492463 0.692094 0.202296 0.0128 Uiso
H5_3 H 0.550816 0.806043 0.147404 0.0507 Uiso
H6_3 H 0.433607 0.799301 0.278508 0.0507 Uiso
O13_3 O 0.422624 0.963172 0.306229 0.0128 Uiso
H12_3 H 0.432504 0.997948 0.414696 . .
C13_4 C 0.491834 0.031540 0.728937 0.0128 Uiso
N3_4 N 0.527051 0.074707 0.685304 0.0128 Uiso
C14_4 C 0.527257 0.165080 0.676593 0.0128 Uiso
C15_4 C 0.492245 0.212286 0.711514 0.0128 Uiso
C16_4 C 0.457028 0.169120 0.755147 0.0128 Uiso
C17_4 C 0.456822 0.078747 0.763858 0.0128 Uiso
C23_4 C 0.492463 0.307906 0.702296 0.0128 Uiso
O9_2 O 0.525961 0.347880 0.672676 0.0128 Uiso
O10_2 O 0.459155 0.351133 0.723897 0.0128 Uiso
H5_4 H 0.550816 0.193957 0.647404 0.0507 Uiso
H6_4 H 0.433607 0.200699 0.778508 0.0507 Uiso
O13_4 O 0.422624 0.036828 0.806229 0.0128 Uiso
H12_4 H 0.432504 0.0020518 0.914696 . .
C1_4 C 0.781991 0.742780 0.030963 0.0128 Uiso
C3_4 C 0.858428 0.837765 0.065228 0.0128 Uiso
C4_4 C 0.835693 0.836758 0.201492 0.0128 Uiso
C5_4 C 0.797474 0.789265 0.18436 0.0128 Uiso
C6_4 C 0.741553 0.692530 0.012836 0.0128 Uiso
C10_4 C 0.680598 0.644030 0.131968 0.0128 Uiso
N2_4 N 0.718817 0.691523 0.149101 0.0128 Uiso
C11_4 C 0.898866 0.888014 0.083355 0.0128 Uiso
H2_4 H 0.84605 0.867855 0.304109 0.0507 Uiso
O7_4 O 0.775395 0.788288 0.316683 0.0128 Uiso
H4_4 H 0.665388 0.643357 0.223124 0.0507 Uiso
H10_4 H 0.773276 0.727551 0.357898 . .
N1_4 N 0.804727 0.743786 0.894698 0.0128 Uiso
C2_4 C 0.842946 0.791279 0.911831 0.0128 Uiso
C7_4 C 0.726070 0.646044 0.859439 0.0128 Uiso
C8_4 C 0.687851 0.598551 0.842306 0.0128 Uiso
C9_4 C 0.665115 0.597545 0.978571 0.0128 Uiso
C12_4 C 0.624677 0.547295 0.960444 0.0128 Uiso
O5_4 O 0.613113 0.496340 0.828955 0.0128 Uiso
H1_4 H 0.858155 0.791952 0.820675 0.0507 Uiso
H3_4 H 0.677493 0.567454 0.739690 0.0507 Uiso
O8_4 O 0.748148 0.647022 0.727116 0.0128 Uiso
C18_4 C 0.491616 0.935920 0.738155 0.0128 Uiso
C19_4 C 0.526627 0.888714 0.703233 0.0128 Uiso
C20_4 C 0.526421 0.798341 0.711945 0.0128 Uiso
C21_4 C 0.491204 0.755174 0.755578 0.0128 Uiso
C22_4 C 0.456193 0.802380 0.790499 0.0128 Uiso
N4_4 N 0.456398 0.892754 0.781788 0.0128 Uiso
C24_4 C 0.490986 0.659554 0.764795 0.0128 Uiso
O11_4 O 0.515695 0.615139 0.685674 0.0128 Uiso
O12_4 O 0.466088 0.620769 0.851937 0.0128 Uiso
O14_4 O 0.560826 0.930632 0.660863 0.0128 Uiso
H7_4 H 0.549843 0.766762 0.688584 0.0507 Uiso
H8_4 H 0.432634 0.773504 0.819688 0.0507 Uiso
H9_4 H 0.777736 0.623304 0.769746 . .
H11_4 H 0.573944 0.969901 0.758743 . .
loop_
_geom_bond_atom_site_label_1
_geom_bond_atom_site_label_2
_geom_bond_site_symmetry_1
_geom_bond_site_symmetry_2
C3 C4 1_555 1_555
C4 C5 1_555 1_555
C5 C1 1_555 1_555
C6 C1 1_555 1_555
N2 C6 1_555 1_555
C11 C3 1_555 1_555
O4 C11 1_555 1_555
H2 C4 1_555 1_555
O7 C5 1_555 1_555
H4 C10 1_555 1_555
Zr5 O4 1_555 1_555
C10 N2 1_555 1_555
O6 Zr7 1_555 1_555
O7 H10 1_555 1_555
N1 C2 1_555 1_555
C8 C7 1_555 1_555
C9 C8 1_555 1_555
C12 C9 1_555 1_555
H1 C2 1_555 1_555
H3 C8 1_555 1_555
O8 C7 1_555 1_555
N3 C14 1_555 1_555
C20 C19 1_555 1_555
H5 C14 1_555 1_555
O14 C19 1_555 1_555
H7 C20 1_555 1_555
Zr6 O3 1_555 1_555
Zr8 O9 1_555 1_555
O8 H9 1_555 1_555
O14 H11 1_555 1_555
O5 Zr8 1_555 1_555
O19 Zr8 1_555 1_555
Zr8 O2 1_555 1_555
C15 C16 1_555 1_555
C16 C17 1_555 1_555
C17 C13 1_555 1_555
C18 C13 1_555 1_555
C22 C21 1_555 1_555
N4 C18 1_555 1_555
C23 C15 1_555 1_555
C24 C21 1_555 1_555
O10 C23 1_555 1_555
H6 C16 1_555 1_555
O13 C17 1_555 1_555
H8 C22 1_555 1_555
Zr4 O10 1_555 1_555
C22 N4 1_555 1_555
C24 O12 1_555 1_555
O13 H12 1_555 1_555
Zr4 O1 1_555 1_555
O17 Zr4 1_555 1_555
O5_2 Zr7 1_555 1_555
O20 Zr7 1_555 1_555
Zr7 O16 1_555 1_555
C1_2 N1_2 1_555 1_555
N1_2 C2_2 1_555 1_555
C2_2 C3_2 1_555 1_555
C3_2 C4_2 1_555 1_555
C4_2 C5_2 1_555 1_555
C5_2 C1_2 1_555 1_555
C6_2 C1_2 1_555 1_555
C7_2 C6_2 1_555 1_555
C8_2 C7_2 1_555 1_555
C9_2 C8_2 1_555 1_555
C10_2 C9_2 1_555 1_555
N2_2 C6_2 1_555 1_555
C11_2 C3_2 1_555 1_555
C12_2 C9_2 1_555 1_555
O3_2 C11_2 1_555 1_555
O4_2 C11_2 1_555 1_555
O19 C12_2 1_555 1_555
H1_2 C2_2 1_555 1_555
H2_2 C4_2 1_555 1_555
O7_2 C5_2 1_555 1_555
H3_2 C8_2 1_555 1_555
O8_2 C7_2 1_555 1_555
H4_2 C10_2 1_555 1_555
N3_2 C14_2 1_555 1_555
C20_2 C19_2 1_555 1_555
H5_2 C14_2 1_555 1_555
O14_2 C19_2 1_555 1_555
H7_2 C20_2 1_555 1_555
Zr6 O4_2 1_555 1_555
Zr5 O3_2 1_555 1_555
C10_2 N2_2 1_555 1_555
O8_2 H9_2 1_555 1_555
O7_2 H10_2 1_555 1_555
O14_2 H11_2 1_555 1_555
Zr3 O15 1_555 1_555
O17_2 Zr3 1_555 1_555
O21 Zr3 1_555 1_555
C15_2 C16_2 1_555 1_555
C16_2 C17_2 1_555 1_555
C17_2 C13_2 1_555 1_555
C18_2 C13_2 1_555 1_555
C22_2 C21_2 1_555 1_555
N4_2 C18_2 1_555 1_555
C23_2 C15_2 1_555 1_555
C24_2 C21_2 1_555 1_555
O21 C23_2 1_555 1_555
H6_2 C16_2 1_555 1_555
O13_2 C17_2 1_555 1_555
H8_2 C22_2 1_555 1_555
C22_2 N4_2 1_555 1_555
C24_2 O12_2 1_555 1_555
O13_2 H12_2 1_555 1_555
Zr5 O1_2 1_555 1_555
Zr2 O1_2 1_555 1_555
O2_2 Zr5 1_555 1_555
C1_3 N1_3 1_555 1_555
N1_3 C2_3 1_555 1_555
C2_3 C3_3 1_555 1_555
C3_3 C4_3 1_555 1_555
C4_3 C5_3 1_555 1_555
C5_3 C1_3 1_555 1_555
C6_3 C1_3 1_555 1_555
C7_3 C6_3 1_555 1_555
C8_3 C7_3 1_555 1_555
C9_3 C8_3 1_555 1_555
C10_3 C9_3 1_555 1_555
N2_3 C6_3 1_555 1_555
C11_3 C3_3 1_555 1_555
C12_3 C9_3 1_555 1_555
O17_2 C11_3 1_555 1_555
O18 C11_3 1_555 1_555
O5_3 Zr2 1_555 1_555
O6_2 C12_3 1_555 1_555
H1_3 C2_3 1_555 1_555
H2_3 C4_3 1_555 1_555
O7_3 C5_3 1_555 1_555
H3_3 C8_3 1_555 1_555
O8_3 C7_3 1_555 1_555
H4_3 C10_3 1_555 1_555
C19_3 C18_3 1_555 1_555
C20_3 C19_3 1_555 1_555
C21_3 C20_3 1_555 1_555
C22_3 C21_3 1_555 1_555
N4_3 C18_3 1_555 1_555
C24_3 C21_3 1_555 1_555
O11_3 Zr2 1_555 1_555
O12_3 Zr5 1_555 1_555
O14_3 C19_3 1_555 1_555
H7_3 C20_3 1_555 1_555
H8_3 C22_3 1_555 1_555
Zr7_2 O2_2 1_555 1_555
O15_2 Zr5 1_555 1_555
O19_2 Zr2 1_555 1_555
O20_2 Zr2 1_555 1_555
O21_2 Zr5 1_555 1_555
Zr2 O2_2 1_555 1_555
C10_3 N2_3 1_555 1_555
C12_3 O5_3 1_555 1_555
O6_2 Zr7_2 1_555 1_555
C22_3 N4_3 1_555 1_555
C24_3 O11_3 1_555 1_555
C24_3 O12_3 1_555 1_555
Zr7_2 O15_2 1_555 1_555
O8_3 H9_3 1_555 1_555
O7_3 H10_3 1_555 1_555
O14_3 H11_3 1_555 1_555
Zr6 O16_2 1_555 1_555
C13_3 N3_3 1_555 1_555
N3_3 C14_3 1_555 1_555
C14_3 C15_3 1_555 1_555
C15_3 C16_3 1_555 1_555
C16_3 C17_3 1_555 1_555
C17_3 C13_3 1_555 1_555
C23_3 C15_3 1_555 1_555
O20_2 C23_3 1_555 1_555
O21_2 C23_3 1_555 1_555
H5_3 C14_3 1_555 1_555
H6_3 C16_3 1_555 1_555
O13_3 C17_3 1_555 1_555
O13_3 H12_3 1_555 1_555
C13_4 N3_4 1_555 1_555
N3_4 C14_4 1_555 1_555
C14_4 C15_4 1_555 1_555
C15_4 C16_4 1_555 1_555
C16_4 C17_4 1_555 1_555
C17_4 C13_4 1_555 1_555
C23_4 C15_4 1_555 1_555
O9_2 C23_4 1_555 1_555
O10_2 C23_4 1_555 1_555
H5_4 C14_4 1_555 1_555
H6_4 C16_4 1_555 1_555
O13_4 C17_4 1_555 1_555
Zr6 O10_2 1_555 1_555
Zr7_2 O9_2 1_555 1_555
O13_4 H12_4 1_555 1_555
C3_4 C4_4 1_555 1_555
C4_4 C5_4 1_555 1_555
C5_4 C1_4 1_555 1_555
C6_4 C1_4 1_555 1_555
N2_4 C6_4 1_555 1_555
C11_4 C3_4 1_555 1_555
O18_2 C11_4 1_555 1_555
H2_4 C4_4 1_555 1_555
O7_4 C5_4 1_555 1_555
H4_4 C10_4 1_555 1_555
C10_4 N2_4 1_555 1_555
O7_4 H10_4 1_555 1_555
Zr6 O15_2 1_555 1_555
N1_4 C2_4 1_555 1_555
C8_4 C7_4 1_555 1_555
C9_4 C8_4 1_555 1_555
C12_4 C9_4 1_555 1_555
O5_4 Zr7_2 1_555 1_555
H1_4 C2_4 1_555 1_555
H3_4 C8_4 1_555 1_555
O8_4 C7_4 1_555 1_555
C19_4 C18_4 1_555 1_555
C20_4 C19_4 1_555 1_555
C21_4 C20_4 1_555 1_555
C22_4 C21_4 1_555 1_555
N4_4 C18_4 1_555 1_555
C24_4 C21_4 1_555 1_555
O11_4 Zr7_2 1_555 1_555
O12_4 Zr6 1_555 1_555
O14_4 C19_4 1_555 1_555
H7_4 C20_4 1_555 1_555
H8_4 C22_4 1_555 1_555
Zr7_2 O16_2 1_555 1_555
C12_4 O5_4 1_555 1_555
C22_4 N4_4 1_555 1_555
C24_4 O11_4 1_555 1_555
C24_4 O12_4 1_555 1_555
O8_4 H9_4 1_555 1_555
O14_4 H11_4 1_555 1_555

#END
