
###############################################################################
#
# This file contains modified crystal structure data generated from the
# MOF subset of the Cambridge Structural Database (CSD) v543 
# hosted by the Cambridge Crystallographic Data Centre (CCDC).
#
# This work is licensed under the Creative Commons
# Attribution-NonCommercial-ShareAlike 4.0 International License.
# To view a copy of this license, visit
# http://creativecommons.org/licenses/by-nc-sa/4.0/
# or send a letter to
# Creative Commons, PO Box 1866, Mountain View, CA 94042, USA.
#
# CIF created using the CSD Python API on 29 September 2022
# The structure has been converted into the P1 space group
# The structure has a 3D framework
# The original CSD entry ZOHCOR is in the monoclinic crystal system
# The framework has been calculated to contain at least 10.0% void space
# The void calculation uses a probe of radius 1.32A, grid spacing 0.4
#
###############################################################################

data_ZOHCOR
_chemical_formula_moiety         '(C128 H64 In7 O19)n'
_symmetry_cell_setting           triclinic
_symmetry_space_group_name_H-M   'P 1'
_symmetry_Int_Tables_number      1
_space_group_name_Hall           'P 1'
loop_
_symmetry_equiv_pos_site_id
_symmetry_equiv_pos_as_xyz
1 x,y,z
_cell_length_a                   7.2183(5)
_cell_length_b                   43.778(3)
_cell_length_c                   10.9651(8)
_cell_angle_alpha                90
_cell_angle_beta                 93.594(3)
_cell_angle_gamma                90
_cell_volume                     3458.19
loop_
_atom_site_label
_atom_site_type_symbol
_atom_site_fract_x
_atom_site_fract_y
_atom_site_fract_z
In8 In 0.000000 0.000000 0.500000
In5 In 0.500000 0.000000 0.500000
In8_2 In 1.000000 0.000000 0.500000
O1 O 0.1085(5) 0.03585(8) 0.6190(3)
O2 O 0.4165(5) 0.03577(7) 0.6214(3)
C1 C 0.2631(7) 0.04740(10) 0.6463(4)
C2 C 0.2676(7) 0.07625(10) 0.7150(5)
C3 C 0.1087(8) 0.09225(13) 0.7287(7)
C4 C 0.1124(9) 0.12011(14) 0.7897(8)
H2 H 0.001845 0.130493 0.799397
C5 C 0.2750(8) 0.13235(12) 0.8352(6)
C6 C 0.4375(8) 0.11605(13) 0.8237(7)
H3 H 0.550246 0.123883 0.855407
C7 C 0.4315(8) 0.08832(12) 0.7653(6)
H4 H 0.541015 0.077358 0.759426
C8 C 0.2783(8) 0.16269(13) 0.8888(6)
C9 C 0.2730(8) 0.18805(13) 0.9238(6)
C10 C 0.2631(7) 0.21949(12) 0.9643(5)
C11 C 0.2938(7) 0.24234(11) 0.8798(6)
C12 C 0.3376(8) 0.23641(17) 0.7571(7)
H5 H 0.345318 0.216273 0.730861
C13 C 0.3684(10) 0.2593(2) 0.6775(7)
H6 H 0.397970 0.254452 0.598412
C14 C 0.3568(10) 0.2896(2) 0.7112(8)
H7 H 0.378495 0.305003 0.655494
C15 C 0.3130(8) 0.29661(15) 0.8273(8)
H8 H 0.304426 0.317034 0.849660
C16 C 0.2807(7) 0.27403(12) 0.9135(6)
H17 H 0.004025 0.084448 0.303227
O16 O 0.2414(5) 0.000000 0.4054(4)
O3 O 0.7586(5) 0.000000 0.5946(4)
H1 H 0.995975 0.084448 0.696773
O7 O 0.8915(5) 0.03585(8) 0.3810(3)
O8 O 0.5835(5) 0.03577(7) 0.3786(3)
C33 C 0.7369(7) 0.04740(10) 0.3537(4)
C34 C 0.7324(7) 0.07625(10) 0.2850(5)
C35 C 0.8913(8) 0.09225(13) 0.2713(7)
C36 C 0.8876(9) 0.12011(14) 0.2103(8)
H18 H 0.998155 0.130493 0.200603
C37 C 0.7250(8) 0.13235(12) 0.1648(6)
C38 C 0.5625(8) 0.11605(13) 0.1763(7)
H19 H 0.449754 0.123883 0.144593
C39 C 0.5685(8) 0.08832(12) 0.2347(6)
H20 H 0.458985 0.077358 0.240574
C40 C 0.7217(8) 0.16269(13) 0.1112(6)
C41 C 0.7270(8) 0.18805(13) 0.0762(6)
C42 C 0.7369(7) 0.21949(12) 0.0357(5)
C43 C 0.7062(7) 0.24234(11) 0.1202(6)
C44 C 0.6624(8) 0.23641(17) 0.2429(7)
H21 H 0.654682 0.216273 0.269139
C45 C 0.6316(10) 0.2593(2) 0.3225(7)
H22 H 0.602030 0.254452 0.401588
C46 C 0.6432(10) 0.2896(2) 0.2888(8)
H23 H 0.621505 0.305003 0.344506
C47 C 0.6870(8) 0.29661(15) 0.1727(8)
H24 H 0.695574 0.317034 0.150340
C48 C 0.7193(7) 0.27403(12) 0.0865(6)
H9 H 0.004025 0.915552 0.303227
In8_3 In -0.000000 1.000000 0.500000
O4 O 0.8915(5) 0.96415(8) 0.3810(3)
O5 O 0.5835(5) 0.96423(7) 0.3786(3)
C17 C 0.7369(7) 0.95260(10) 0.3537(4)
C18 C 0.7324(7) 0.92375(10) 0.2850(5)
C19 C 0.8913(8) 0.90775(13) 0.2713(7)
C20 C 0.8876(9) 0.87989(14) 0.2103(8)
H10 H 0.998155 0.869507 0.200603
C21 C 0.7250(8) 0.86765(12) 0.1648(6)
C22 C 0.5625(8) 0.88395(13) 0.1763(7)
H11 H 0.449754 0.876117 0.144593
C23 C 0.5685(8) 0.91168(12) 0.2347(6)
H12 H 0.458985 0.922642 0.240574
C24 C 0.7217(8) 0.83731(13) 0.1112(6)
C25 C 0.7270(8) 0.81195(13) 0.0762(6)
C26 C 0.7369(7) 0.78051(12) 0.0357(5)
C27 C 0.7062(7) 0.75766(11) 0.1202(6)
C28 C 0.6624(8) 0.76359(17) 0.2429(7)
H13 H 0.654682 0.783727 0.269139
C29 C 0.6316(10) 0.7407(2) 0.3225(7)
H14 H 0.602030 0.745548 0.401588
C30 C 0.6432(10) 0.7104(2) 0.2888(8)
H15 H 0.621505 0.694997 0.344506
C31 C 0.6870(8) 0.70339(15) 0.1727(8)
H16 H 0.695574 0.682966 0.150340
C32 C 0.7193(7) 0.72597(12) 0.0865(6)
In5_2 In 0.500000 1.000000 0.500000
In8_4 In 1.000000 1.000000 0.500000
O9 O 0.1085(5) 0.96415(8) 0.6190(3)
O10 O 0.4165(5) 0.96423(7) 0.6214(3)
C49 C 0.2631(7) 0.95260(10) 0.6463(4)
C50 C 0.2676(7) 0.92375(10) 0.7150(5)
C51 C 0.1087(8) 0.90775(13) 0.7287(7)
C52 C 0.1124(9) 0.87989(14) 0.7897(8)
H26 H 0.001845 0.869507 0.799397
C53 C 0.2750(8) 0.86765(12) 0.8352(6)
C54 C 0.4375(8) 0.88395(13) 0.8237(7)
H27 H 0.550246 0.876117 0.855407
C55 C 0.4315(8) 0.91168(12) 0.7653(6)
H28 H 0.541015 0.922642 0.759426
C56 C 0.2783(8) 0.83731(13) 0.8888(6)
C57 C 0.2730(8) 0.81195(13) 0.9238(6)
C58 C 0.2631(7) 0.78051(12) 0.9643(5)
C59 C 0.2938(7) 0.75766(11) 0.8798(6)
C60 C 0.3376(8) 0.76359(17) 0.7571(7)
H29 H 0.345318 0.783727 0.730861
C61 C 0.3684(10) 0.7407(2) 0.6775(7)
H30 H 0.397970 0.745548 0.598412
C62 C 0.3568(10) 0.7104(2) 0.7112(8)
H31 H 0.378495 0.694997 0.655494
C63 C 0.3130(8) 0.70339(15) 0.8273(8)
H32 H 0.304426 0.682966 0.849660
C64 C 0.2807(7) 0.72597(12) 0.9135(6)
H25 H 0.995975 0.915552 0.696773
O16_2 O 0.2414(5) 1.000000 0.4054(4)
O3_2 O 0.7586(5) 1.000000 0.5946(4)
H3_2 H 0.050246 0.623883 0.855407
H4_2 H 0.041015 0.577358 0.759426
In3 In 0.000000 0.500000 0.500000
In2 In 0.500000 0.500000 0.500000
O1_2 O 0.6085(5) 0.53585(8) 0.6190(3)
O2_2 O 0.9165(5) 0.53577(7) 0.6214(3)
O3_3 O 0.2586(5) 0.500000 0.5946(4)
C1_2 C 0.7631(7) 0.54740(10) 0.6463(4)
C2_2 C 0.7676(7) 0.57625(10) 0.7150(5)
C3_2 C 0.6087(8) 0.59225(13) 0.7287(7)
H1_2 H 0.495975 0.584448 0.696773
C4_2 C 0.6124(9) 0.62011(14) 0.7897(8)
H2_2 H 0.501845 0.630493 0.799397
C5_2 C 0.7750(8) 0.63235(12) 0.8352(6)
C6_2 C 0.9375(8) 0.61605(13) 0.8237(7)
C7_2 C 0.9315(8) 0.58832(12) 0.7653(6)
C8_2 C 0.7783(8) 0.66269(13) 0.8888(6)
C9_2 C 0.7730(8) 0.68805(13) 0.9238(6)
C10_2 C 0.7631(7) 0.71949(12) 0.9643(5)
C11_2 C 0.7938(7) 0.74234(11) 0.8798(6)
C12_2 C 0.8376(8) 0.73641(17) 0.7571(7)
H5_2 H 0.845318 0.716273 0.730861
C13_2 C 0.8684(10) 0.7593(2) 0.6775(7)
H6_2 H 0.897970 0.754452 0.598412
C14_2 C 0.8568(10) 0.7896(2) 0.7112(8)
H7_2 H 0.878495 0.805003 0.655494
C15_2 C 0.8130(8) 0.79661(15) 0.8273(8)
H8_2 H 0.804426 0.817034 0.849660
C16_2 C 0.7807(7) 0.77403(12) 0.9135(6)
O7_2 O 0.3915(5) 0.53585(8) 0.3810(3)
O8_2 O 0.0835(5) 0.53577(7) 0.3786(3)
C33_2 C 0.2369(7) 0.54740(10) 0.3537(4)
C34_2 C 0.2324(7) 0.57625(10) 0.2850(5)
C35_2 C 0.3913(8) 0.59225(13) 0.2713(7)
H17_2 H 0.504025 0.584448 0.303227
C36_2 C 0.3876(9) 0.62011(14) 0.2103(8)
H18_2 H 0.498155 0.630493 0.200603
C37_2 C 0.2250(8) 0.63235(12) 0.1648(6)
C38_2 C 0.0625(8) 0.61605(13) 0.1763(7)
C39_2 C 0.0685(8) 0.58832(12) 0.2347(6)
C40_2 C 0.2217(8) 0.66269(13) 0.1112(6)
C41_2 C 0.2270(8) 0.68805(13) 0.0762(6)
C42_2 C 0.2369(7) 0.71949(12) 0.0357(5)
C43_2 C 0.2062(7) 0.74234(11) 0.1202(6)
C44_2 C 0.1624(8) 0.73641(17) 0.2429(7)
H21_2 H 0.154682 0.716273 0.269139
C45_2 C 0.1316(10) 0.7593(2) 0.3225(7)
H22_2 H 0.102030 0.754452 0.401588
C46_2 C 0.1432(10) 0.7896(2) 0.2888(8)
H23_2 H 0.121505 0.805003 0.344506
C47_2 C 0.1870(8) 0.79661(15) 0.1727(8)
H24_2 H 0.195574 0.817034 0.150340
C48_2 C 0.2193(7) 0.77403(12) 0.0865(6)
In3_2 In 1.000000 0.500000 0.500000
O11 O 0.3915(5) 0.46415(8) 0.3810(3)
O12 O 0.6085(5) 0.46415(8) 0.6190(3)
O14 O 0.0835(5) 0.46423(7) 0.3786(3)
O16_3 O 0.7414(5) 0.500000 0.4054(4)
H19_2 H 0.949754 0.623883 0.144593
H20_2 H 0.958985 0.577358 0.240574
O15 O 0.9165(5) 0.46423(7) 0.6214(3)
C17_2 C 0.2369(7) 0.45260(10) 0.3537(4)
C18_2 C 0.2324(7) 0.42375(10) 0.2850(5)
C19_2 C 0.3913(8) 0.40775(13) 0.2713(7)
H9_2 H 0.504025 0.415552 0.303227
C20_2 C 0.3876(9) 0.37989(14) 0.2103(8)
H10_2 H 0.498155 0.369507 0.200603
C21_2 C 0.2250(8) 0.36765(12) 0.1648(6)
C22_2 C 0.0625(8) 0.38395(13) 0.1763(7)
C23_2 C 0.0685(8) 0.41168(12) 0.2347(6)
C24_2 C 0.2217(8) 0.33731(13) 0.1112(6)
C25_2 C 0.2270(8) 0.31195(13) 0.0762(6)
C26_2 C 0.2369(7) 0.28051(12) 0.0357(5)
C27_2 C 0.2062(7) 0.25766(11) 0.1202(6)
C28_2 C 0.1624(8) 0.26359(17) 0.2429(7)
H13_2 H 0.154682 0.283727 0.269139
C29_2 C 0.1316(10) 0.2407(2) 0.3225(7)
H14_2 H 0.102030 0.245548 0.401588
C30_2 C 0.1432(10) 0.2104(2) 0.2888(8)
H15_2 H 0.121505 0.194997 0.344506
C31_2 C 0.1870(8) 0.20339(15) 0.1727(8)
H16_2 H 0.195574 0.182966 0.150340
C32_2 C 0.2193(7) 0.22597(12) 0.0865(6)
H27_2 H 0.050246 0.376117 0.855407
H28_2 H 0.041015 0.422642 0.759426
H11_2 H 0.949754 0.376117 0.144593
H12_2 H 0.958985 0.422642 0.240574
C49_2 C 0.7631(7) 0.45260(10) 0.6463(4)
C50_2 C 0.7676(7) 0.42375(10) 0.7150(5)
C51_2 C 0.6087(8) 0.40775(13) 0.7287(7)
H25_2 H 0.495975 0.415552 0.696773
C52_2 C 0.6124(9) 0.37989(14) 0.7897(8)
H26_2 H 0.501845 0.369507 0.799397
C53_2 C 0.7750(8) 0.36765(12) 0.8352(6)
C54_2 C 0.9375(8) 0.38395(13) 0.8237(7)
C55_2 C 0.9315(8) 0.41168(12) 0.7653(6)
C56_2 C 0.7783(8) 0.33731(13) 0.8888(6)
C57_2 C 0.7730(8) 0.31195(13) 0.9238(6)
C58_2 C 0.7631(7) 0.28051(12) 0.9643(5)
C59_2 C 0.7938(7) 0.25766(11) 0.8798(6)
C60_2 C 0.8376(8) 0.26359(17) 0.7571(7)
H29_2 H 0.845318 0.283727 0.730861
C61_2 C 0.8684(10) 0.2407(2) 0.6775(7)
H30_2 H 0.897970 0.245548 0.598412
C62_2 C 0.8568(10) 0.2104(2) 0.7112(8)
H31_2 H 0.878495 0.194997 0.655494
C63_2 C 0.8130(8) 0.20339(15) 0.8273(8)
H32_2 H 0.804426 0.182966 0.849660
C64_2 C 0.7807(7) 0.22597(12) 0.9135(6)
loop_
_geom_bond_atom_site_label_1
_geom_bond_atom_site_label_2
_geom_bond_site_symmetry_1
_geom_bond_site_symmetry_2
In8 O1 1_555 1_555
O1 C1 1_555 1_555
O2 C1 1_555 1_555
C1 C2 1_555 1_555
C2 C3 1_555 1_555
C4 C3 1_555 1_555
H2 C4 1_555 1_555
C5 C4 1_555 1_555
C6 C5 1_555 1_555
H3 C6 1_555 1_555
C7 C2 1_555 1_555
H4 C7 1_555 1_555
C8 C5 1_555 1_555
C9 C8 1_555 1_555
C10 C9 1_555 1_555
C11 C10 1_555 1_555
C12 C11 1_555 1_555
H5 C12 1_555 1_555
C13 C12 1_555 1_555
H6 C13 1_555 1_555
C14 C13 1_555 1_555
H7 C14 1_555 1_555
C15 C14 1_555 1_555
H8 C15 1_555 1_555
C16 C11 1_555 1_555
In5 O2 1_555 1_555
O16 In8 1_555 1_555
C6 C7 1_555 1_555
C15 C16 1_555 1_555
In5 O16 1_555 1_555
In5 O3 1_555 1_555
O3 In8_2 1_555 1_555
O7 In8_2 1_555 1_555
O8 In5 1_555 1_555
C33 O7 1_555 1_555
C34 C33 1_555 1_555
C35 C34 1_555 1_555
C36 C35 1_555 1_555
H18 C36 1_555 1_555
C37 C36 1_555 1_555
C38 C37 1_555 1_555
H19 C38 1_555 1_555
C39 C34 1_555 1_555
H20 C39 1_555 1_555
C40 C37 1_555 1_555
C41 C40 1_555 1_555
C42 C41 1_555 1_555
C43 C42 1_555 1_555
C44 C43 1_555 1_555
H21 C44 1_555 1_555
C45 C44 1_555 1_555
H22 C45 1_555 1_555
C46 C45 1_555 1_555
H23 C46 1_555 1_555
C47 C46 1_555 1_555
H24 C47 1_555 1_555
C48 C43 1_555 1_555
O8 C33 1_555 1_555
C38 C39 1_555 1_555
C47 C48 1_555 1_555
O4 C17 1_555 1_555
O5 C17 1_555 1_555
C17 C18 1_555 1_555
C18 C19 1_555 1_555
C20 C19 1_555 1_555
H10 C20 1_555 1_555
C21 C20 1_555 1_555
C22 C21 1_555 1_555
H11 C22 1_555 1_555
C23 C18 1_555 1_555
H12 C23 1_555 1_555
C24 C21 1_555 1_555
C25 C24 1_555 1_555
C27 C26 1_555 1_555
C28 C27 1_555 1_555
H13 C28 1_555 1_555
C29 C28 1_555 1_555
H14 C29 1_555 1_555
C30 C29 1_555 1_555
H15 C30 1_555 1_555
C31 C30 1_555 1_555
H16 C31 1_555 1_555
In5_2 O5 1_555 1_555
In8_4 O4 1_555 1_555
C22 C23 1_555 1_555
C25 C26 1_555 1_555
C27 C32 1_555 1_555
C31 C32 1_555 1_555
O9 C49 1_555 1_555
O10 C49 1_555 1_555
C49 C50 1_555 1_555
C50 C51 1_555 1_555
C52 C51 1_555 1_555
H26 C52 1_555 1_555
C53 C52 1_555 1_555
C54 C53 1_555 1_555
H27 C54 1_555 1_555
C55 C50 1_555 1_555
H28 C55 1_555 1_555
C56 C53 1_555 1_555
C57 C56 1_555 1_555
C59 C58 1_555 1_555
C60 C59 1_555 1_555
H29 C60 1_555 1_555
C61 C60 1_555 1_555
H30 C61 1_555 1_555
C62 C61 1_555 1_555
H31 C62 1_555 1_555
C63 C62 1_555 1_555
H32 C63 1_555 1_555
In5_2 O10 1_555 1_555
In8_3 O9 1_555 1_555
C54 C55 1_555 1_555
C57 C58 1_555 1_555
C59 C64 1_555 1_555
C63 C64 1_555 1_555
O16_2 In8_3 1_555 1_555
In5_2 O16_2 1_555 1_555
In5_2 O3_2 1_555 1_555
O3_2 In8_4 1_555 1_555
In3 O3_3 1_555 1_555
In2 O1_2 1_555 1_555
O1_2 C1_2 1_555 1_555
O2_2 C1_2 1_555 1_555
O3_3 In2 1_555 1_555
C1_2 C2_2 1_555 1_555
C2_2 C3_2 1_555 1_555
C3_2 H1_2 1_555 1_555
C4_2 C3_2 1_555 1_555
H2_2 C4_2 1_555 1_555
C5_2 C4_2 1_555 1_555
C6_2 C5_2 1_555 1_555
C7_2 C2_2 1_555 1_555
C8_2 C5_2 1_555 1_555
C9_2 C8_2 1_555 1_555
C10_2 C9_2 1_555 1_555
C11_2 C10_2 1_555 1_555
C12_2 C11_2 1_555 1_555
H5_2 C12_2 1_555 1_555
C13_2 C12_2 1_555 1_555
H6_2 C13_2 1_555 1_555
C14_2 C13_2 1_555 1_555
H7_2 C14_2 1_555 1_555
C15_2 C14_2 1_555 1_555
H8_2 C15_2 1_555 1_555
C16_2 C11_2 1_555 1_555
O7_2 In2 1_555 1_555
O8_2 In3 1_555 1_555
C33_2 O7_2 1_555 1_555
C34_2 C33_2 1_555 1_555
C35_2 C34_2 1_555 1_555
H17_2 C35_2 1_555 1_555
C36_2 C35_2 1_555 1_555
H18_2 C36_2 1_555 1_555
C37_2 C36_2 1_555 1_555
C38_2 C37_2 1_555 1_555
C39_2 C34_2 1_555 1_555
C40_2 C37_2 1_555 1_555
C41_2 C40_2 1_555 1_555
C42_2 C41_2 1_555 1_555
C43_2 C42_2 1_555 1_555
C44_2 C43_2 1_555 1_555
H21_2 C44_2 1_555 1_555
C45_2 C44_2 1_555 1_555
H22_2 C45_2 1_555 1_555
C46_2 C45_2 1_555 1_555
H23_2 C46_2 1_555 1_555
C47_2 C46_2 1_555 1_555
H24_2 C47_2 1_555 1_555
C48_2 C43_2 1_555 1_555
In3_2 O2_2 1_555 1_555
O11 In2 1_555 1_555
O12 In2 1_555 1_555
O14 In3 1_555 1_555
O16_3 In2 1_555 1_555
C6_2 C7_2 1_555 1_555
C15_2 C16_2 1_555 1_555
O8_2 C33_2 1_555 1_555
C38_2 C39_2 1_555 1_555
C47_2 C48_2 1_555 1_555
In3_2 O16_3 1_555 1_555
O15 In3_2 1_555 1_555
O11 C17_2 1_555 1_555
O14 C17_2 1_555 1_555
C17_2 C18_2 1_555 1_555
C18_2 C19_2 1_555 1_555
C19_2 H9_2 1_555 1_555
C20_2 C19_2 1_555 1_555
H10_2 C20_2 1_555 1_555
C21_2 C20_2 1_555 1_555
C22_2 C21_2 1_555 1_555
C23_2 C18_2 1_555 1_555
C24_2 C21_2 1_555 1_555
C25_2 C24_2 1_555 1_555
C27_2 C26_2 1_555 1_555
C28_2 C27_2 1_555 1_555
H13_2 C28_2 1_555 1_555
C29_2 C28_2 1_555 1_555
H14_2 C29_2 1_555 1_555
C30_2 C29_2 1_555 1_555
H15_2 C30_2 1_555 1_555
C31_2 C30_2 1_555 1_555
H16_2 C31_2 1_555 1_555
C22_2 C23_2 1_555 1_555
C25_2 C26_2 1_555 1_555
C27_2 C32_2 1_555 1_555
C31_2 C32_2 1_555 1_555
O12 C49_2 1_555 1_555
O15 C49_2 1_555 1_555
C49_2 C50_2 1_555 1_555
C50_2 C51_2 1_555 1_555
C51_2 H25_2 1_555 1_555
C52_2 C51_2 1_555 1_555
H26_2 C52_2 1_555 1_555
C53_2 C52_2 1_555 1_555
C54_2 C53_2 1_555 1_555
C55_2 C50_2 1_555 1_555
C56_2 C53_2 1_555 1_555
C57_2 C56_2 1_555 1_555
C59_2 C58_2 1_555 1_555
C60_2 C59_2 1_555 1_555
H29_2 C60_2 1_555 1_555
C61_2 C60_2 1_555 1_555
H30_2 C61_2 1_555 1_555
C62_2 C61_2 1_555 1_555
H31_2 C62_2 1_555 1_555
C63_2 C62_2 1_555 1_555
H32_2 C63_2 1_555 1_555
C54_2 C55_2 1_555 1_555
C57_2 C58_2 1_555 1_555
C59_2 C64_2 1_555 1_555
C63_2 C64_2 1_555 1_555

#END
