
###############################################################################
#
# This file contains modified crystal structure data generated from the
# MOF subset of the Cambridge Structural Database (CSD) v543 
# hosted by the Cambridge Crystallographic Data Centre (CCDC).
#
# This work is licensed under the Creative Commons
# Attribution-NonCommercial-ShareAlike 4.0 International License.
# To view a copy of this license, visit
# http://creativecommons.org/licenses/by-nc-sa/4.0/
# or send a letter to
# Creative Commons, PO Box 1866, Mountain View, CA 94042, USA.
#
# CIF created using the CSD Python API on 29 September 2022
# The structure has been converted into the P1 space group
# The structure has a 3D framework
# The original CSD entry ZOHCEH is in the rhombohedral crystal system
# The framework has been calculated to contain at least 10.0% void space
# The void calculation uses a probe of radius 1.32A, grid spacing 0.4
#
###############################################################################

data_ZOHCEH
_chemical_formula_moiety         '(C90 H90 Co12 O66)n'
_symmetry_cell_setting           triclinic
_symmetry_space_group_name_H-M   'P 1'
_symmetry_Int_Tables_number      1
_space_group_name_Hall           'P 1'
loop_
_symmetry_equiv_pos_site_id
_symmetry_equiv_pos_as_xyz
1 x,y,z
_cell_length_a                   26.133(4)
_cell_length_b                   26.133(4)
_cell_length_c                   6.6390(13)
_cell_angle_alpha                90
_cell_angle_beta                 90
_cell_angle_gamma                120
_cell_volume                     3926.56
loop_
_atom_site_label
_atom_site_type_symbol
_atom_site_fract_x
_atom_site_fract_y
_atom_site_fract_z
Co1 Co 0.71951(2) 0.01678(2) 0.32237(2)
O4 O 0.79017(4) 0.01299(4) 0.46884(14)
C5 C 0.85198(6) 0.05582(7) 0.4532(2)
H2 H 0.874836 0.035451 0.446058
H3 H 0.864321 0.081670 0.571611
H4 H 0.858939 0.079562 0.331271
Co3 Co 0.64989(2) 0.03606(3) 0.65570(2)
O9 O 0.72570(3) 0.08510(5) 0.49501(11)
O12 O 0.63643(6) 0.00660(4) 0.19955(12)
O14 O 0.77333(4) 0.06969(6) 0.10078(12)
O11 O 0.70350(4) 0.03023(6) 0.86621(12)
O1 O 0.69274(4) 0.94097(3) 0.16168(11)
O2 O 0.66007(4) 0.96317(4) 0.53288(12)
O3 O 0.62970(4) 0.89334(4) 0.76745(12)
C1 C 0.67984(5) 0.88934(5) 0.25170(16)
C2 C 0.66021(5) 0.87421(4) 0.45369(16)
C3 C 0.64962(5) 0.91260(5) 0.59347(16)
C4 C 0.68556(5) 0.84757(5) 0.13771(16)
H1 H 0.698556 0.857016 0.002147
H5 H 0.7850(11) 0.9981(11) 0.589(4)
O5 O 0.64059(4) 0.72570(3) 0.50499(11)
O6 O 0.67326(4) 0.70350(4) 0.13379(12)
C6 C 0.65349(5) 0.77733(5) 0.41497(16)
C7 C 0.67312(5) 0.79246(4) 0.21298(16)
C8 C 0.68371(5) 0.75407(5) 0.07320(16)
C9 C 0.64777(5) 0.81910(5) 0.52896(16)
H6 H 0.634777 0.809651 0.664520
O8 O 0.55615(6) 0.87650(4) 0.13551(14)
C10 C 0.53717(9) 0.81469(6) 0.1199(2)
H7 H 0.493948 0.791831 0.112725
H8 H 0.550682 0.802346 0.238278
H10 H 0.5464(16) 0.8817(11) 0.256(4)
Co4 Co 0.63060(3) 0.94716(2) 0.98904(2)
Co6 Co 0.70273(3) 0.71951(2) 0.67763(2)
Co7 Co 0.68345(2) 0.63060(3) 0.01096(2)
Co8 Co 0.61382(2) 0.64989(2) 0.34430(2)
O7 O 0.70363(4) 0.77333(4) 0.89922(12)
H9 H 0.553956 0.807728 0.997938
O10 O 0.58156(5) 0.97393(4) 0.82835(11)
Co7_2 Co 0.36940(3) 0.05284(4) 0.01096(2)
O1_2 O 0.05903(3) 0.75177(5) 0.16168(11)
O2_2 O 0.03683(4) 0.69690(6) 0.53288(12)
O3_2 O 0.10666(4) 0.73636(6) 0.76745(12)
C1_2 C 0.11066(5) 0.79050(7) 0.25170(16)
C2_2 C 0.12579(4) 0.78600(6) 0.45369(16)
C3_2 C 0.08740(5) 0.73702(7) 0.59347(16)
C4_2 C 0.15243(5) 0.83799(7) 0.13771(16)
H1_2 H 0.142984 0.841540 0.002147
H5_2 H 0.0019(11) 0.7869(16) 0.589(4)
O5_2 O 0.27430(3) 0.91490(5) 0.50499(11)
O6_2 O 0.29650(4) 0.96977(6) 0.13379(12)
C6_2 C 0.22267(5) 0.87617(7) 0.41497(16)
C7_2 C 0.20754(4) 0.88067(6) 0.21298(16)
C8_2 C 0.24593(5) 0.92965(7) 0.07320(16)
C9_2 C 0.18090(5) 0.82868(7) 0.52896(16)
H6_2 H 0.190349 0.825127 0.664520
O8_2 O 0.12350(4) 0.67966(7) 0.13551(14)
C10_2 C 0.18531(6) 0.72249(11) 0.1199(2)
H7_2 H 0.208169 0.702118 0.112725
H8_2 H 0.197654 0.748337 0.238278
H10_2 H 0.1183(11) 0.6648(19) 0.256(4)
Co4_2 Co 0.05284(2) 0.68345(4) 0.98904(2)
Co6_2 Co 0.28049(2) 0.98322(4) 0.67763(2)
Co8_2 Co 0.35011(2) 0.96394(3) 0.34430(2)
O7_2 O 0.22667(4) 0.93031(6) 0.89922(12)
H9_2 H 0.192272 0.746229 0.997938
O10_2 O 0.02607(4) 0.60764(6) 0.82835(11)
Co1_2 Co 0.98322(2) 0.70273(3) 0.32237(2)
O4_2 O 0.98701(4) 0.77718(6) 0.46884(14)
C5_2 C 0.94418(7) 0.79616(9) 0.4532(2)
H2_2 H 0.964549 0.839385 0.446058
H3_2 H 0.918330 0.782651 0.571611
H4_2 H 0.920438 0.779377 0.331271
Co3_2 Co 0.96394(3) 0.61382(4) 0.65570(2)
O9_2 O 0.91490(5) 0.64059(6) 0.49501(11)
O12_2 O 0.99340(4) 0.62984(7) 0.19955(12)
O14_2 O 0.93031(6) 0.70363(7) 0.10078(12)
O11_2 O 0.96977(6) 0.67326(7) 0.86621(12)
Co1_3 Co 0.29727(3) 0.28049(2) 0.32237(2)
O1_3 O 0.24823(5) 0.30726(4) 0.16168(11)
O2_3 O 0.30310(6) 0.33993(4) 0.53288(12)
O3_3 O 0.26364(6) 0.37030(4) 0.76745(12)
C1_3 C 0.20950(7) 0.32016(5) 0.25170(16)
C2_3 C 0.21400(6) 0.33979(5) 0.45369(16)
C3_3 C 0.26298(7) 0.35038(5) 0.59347(16)
C4_3 C 0.16201(7) 0.31444(5) 0.13771(16)
H1_3 H 0.158460 0.301444 0.002147
O4_3 O 0.22282(6) 0.20983(4) 0.46884(14)
C5_3 C 0.20384(9) 0.14802(6) 0.4532(2)
H2_3 H 0.160615 0.125164 0.446058
H3_3 H 0.217349 0.135679 0.571611
H4_3 H 0.220623 0.141061 0.331271
H5_3 H 0.2131(16) 0.2150(11) 0.589(4)
O5_3 O 0.08510(5) 0.35941(4) 0.50499(11)
O6_3 O 0.03023(6) 0.32674(4) 0.13379(12)
C6_3 C 0.12383(7) 0.34651(5) 0.41497(16)
C7_3 C 0.11933(6) 0.32688(5) 0.21298(16)
C8_3 C 0.07035(7) 0.31629(5) 0.07320(16)
C9_3 C 0.17132(7) 0.35223(5) 0.52896(16)
H6_3 H 0.174873 0.365223 0.664520
O8_3 O 0.32034(7) 0.44385(6) 0.13551(14)
C10_3 C 0.27751(11) 0.46283(9) 0.1199(2)
H7_3 H 0.297882 0.506052 0.112725
H8_3 H 0.251663 0.449318 0.238278
H10_3 H 0.3352(19) 0.4536(16) 0.256(4)
Co3_3 Co 0.38618(4) 0.35011(2) 0.65570(2)
Co4_3 Co 0.31655(4) 0.36940(3) 0.98904(2)
Co6_3 Co 0.01678(4) 0.29727(3) 0.67763(2)
Co8_3 Co 0.03606(3) 0.38618(2) 0.34430(2)
O9_3 O 0.35941(6) 0.27430(3) 0.49501(11)
O12_3 O 0.37016(7) 0.36357(6) 0.19955(12)
O14_3 O 0.29637(7) 0.22667(4) 0.10078(12)
O7_3 O 0.06969(6) 0.29637(4) 0.89922(12)
H9_3 H 0.253771 0.446044 0.997938
O10_3 O 0.39236(6) 0.41844(5) 0.82835(11)
O11_3 O 0.32674(7) 0.29650(4) 0.86621(12)
Co7_3 Co 0.94716(4) 0.31655(2) 0.01096(2)
C1_4 C 0.34651(5) 0.22267(5) 0.58503(16)
C2_4 C 0.32688(5) 0.20754(4) 0.78702(16)
C3_4 C 0.31629(5) 0.24593(5) 0.92680(16)
C4_4 C 0.35223(5) 0.18090(5) 0.47104(16)
H1_4 H 0.365223 0.190349 0.335480
O4_4 O 0.45684(4) 0.34632(4) 0.80217(14)
C5_4 C 0.51865(6) 0.38915(7) 0.7865(2)
H2_4 H 0.541503 0.368784 0.779391
H3_4 H 0.530988 0.415003 0.904944
H4_4 H 0.525606 0.412895 0.664604
H5_4 H 0.4517(11) 0.3314(11) 0.922(4)
O5_4 O 0.30726(4) 0.05903(3) 0.83832(11)
O6_4 O 0.33993(4) 0.03683(4) 0.46712(12)
O7_4 O 0.37030(4) 0.10666(4) 0.23255(12)
C6_4 C 0.32016(5) 0.11066(5) 0.74830(16)
C7_4 C 0.33979(5) 0.12579(4) 0.54631(16)
C8_4 C 0.35038(5) 0.08740(5) 0.40653(16)
C9_4 C 0.31444(5) 0.15243(5) 0.86229(16)
H6_4 H 0.301444 0.142984 0.997853
O14_4 O 0.43999(4) 0.40303(6) 0.43412(12)
C1_5 C 0.77733(5) 0.12383(7) 0.58503(16)
C2_5 C 0.79246(4) 0.11933(6) 0.78702(16)
C3_5 C 0.75407(5) 0.07035(7) 0.92680(16)
C4_5 C 0.81910(5) 0.17132(7) 0.47104(16)
H1_5 H 0.809651 0.174873 0.335480
O4_5 O 0.65368(4) 0.11051(6) 0.80217(14)
C5_5 C 0.61085(7) 0.12949(9) 0.7865(2)
H2_5 H 0.631216 0.172718 0.779391
H3_5 H 0.584997 0.115984 0.904944
H4_5 H 0.587105 0.112710 0.664604
H5_5 H 0.6686(11) 0.1202(16) 0.922(4)
O5_5 O 0.94097(3) 0.24823(5) 0.83832(11)
O6_5 O 0.96317(4) 0.30310(6) 0.46712(12)
O7_5 O 0.89334(4) 0.26364(6) 0.23255(12)
C6_5 C 0.88934(5) 0.20950(7) 0.74830(16)
C7_5 C 0.87421(4) 0.21400(6) 0.54631(16)
C8_5 C 0.91260(5) 0.26298(7) 0.40653(16)
C9_5 C 0.84757(5) 0.16201(7) 0.86229(16)
H6_5 H 0.857016 0.158460 0.997853
O14_5 O 0.59697(6) 0.03697(7) 0.43412(12)
C1_6 C 0.87617(7) 0.65349(5) 0.58503(16)
C2_6 C 0.88067(6) 0.67312(5) 0.78702(16)
C3_6 C 0.92965(7) 0.68371(5) 0.92680(16)
C4_6 C 0.82868(7) 0.64777(5) 0.47104(16)
H1_6 H 0.825127 0.634777 0.335480
O4_6 O 0.88949(6) 0.54316(4) 0.80217(14)
C5_6 C 0.87051(9) 0.48135(6) 0.7865(2)
H2_6 H 0.827282 0.458497 0.779391
H3_6 H 0.884016 0.469012 0.904944
H4_6 H 0.887290 0.474394 0.664604
H5_6 H 0.8798(16) 0.5483(11) 0.922(4)
O5_6 O 0.75177(5) 0.69274(4) 0.83832(11)
O6_6 O 0.69690(6) 0.66007(4) 0.46712(12)
O7_6 O 0.73636(6) 0.62970(4) 0.23255(12)
C6_6 C 0.79050(7) 0.67984(5) 0.74830(16)
C7_6 C 0.78600(6) 0.66021(5) 0.54631(16)
C8_6 C 0.73702(7) 0.64962(5) 0.40653(16)
C9_6 C 0.83799(7) 0.68556(5) 0.86229(16)
H6_6 H 0.841540 0.698556 0.997853
O14_6 O 0.96303(7) 0.56001(4) 0.43412(12)
C1_7 C 0.01317(5) 0.55601(5) 0.91837(16)
C4_7 C 0.01889(5) 0.51424(5) 0.80438(16)
H1_7 H 0.031889 0.523683 0.668814
O6_7 O 0.00660(4) 0.37016(4) 0.80045(12)
O7_7 O 0.03697(4) 0.43999(4) 0.56588(12)
C7_7 C 0.00646(5) 0.45912(4) 0.87964(16)
C8_7 C 0.01705(5) 0.42073(5) 0.73986(16)
C2_7 C 0.99354(5) 0.54088(4) 0.12036(16)
C3_7 C 0.98295(5) 0.57927(5) 0.26014(16)
O5_7 O 0.97393(4) 0.39236(3) 0.17165(11)
C6_7 C 0.98683(5) 0.44399(5) 0.08163(16)
C9_7 C 0.98111(5) 0.48576(5) 0.19562(16)
H6_7 H 0.968111 0.476317 0.331186
C2_8 C 0.45912(4) 0.45267(6) 0.12036(16)
C3_8 C 0.42073(5) 0.40369(7) 0.26014(16)
O5_8 O 0.60764(3) 0.58156(5) 0.17165(11)
C6_8 C 0.55601(5) 0.54283(7) 0.08163(16)
C9_8 C 0.51424(5) 0.49534(7) 0.19562(16)
H6_8 H 0.523683 0.491793 0.331186
C1_8 C 0.44399(5) 0.45717(7) 0.91837(16)
C4_8 C 0.48576(5) 0.50466(7) 0.80438(16)
H1_8 H 0.476317 0.508207 0.668814
O6_8 O 0.62984(4) 0.63643(6) 0.80045(12)
O7_8 O 0.56001(4) 0.59697(6) 0.56588(12)
C7_8 C 0.54088(4) 0.54733(6) 0.87964(16)
C8_8 C 0.57927(5) 0.59631(7) 0.73986(16)
C2_9 C 0.54733(6) 0.00646(5) 0.12036(16)
C3_9 C 0.59631(7) 0.01705(5) 0.26014(16)
O5_9 O 0.41844(5) 0.02607(4) 0.17165(11)
C6_9 C 0.45717(7) 0.01317(5) 0.08163(16)
C9_9 C 0.50466(7) 0.01889(5) 0.19562(16)
H6_9 H 0.508207 0.031889 0.331186
C1_9 C 0.54283(7) 0.98683(5) 0.91837(16)
C4_9 C 0.49534(7) 0.98111(5) 0.80438(16)
H1_9 H 0.491793 0.968111 0.668814
O6_9 O 0.36357(6) 0.99340(4) 0.80045(12)
O7_9 O 0.40303(6) 0.96303(4) 0.56588(12)
C7_9 C 0.45267(6) 0.99354(5) 0.87964(16)
C8_9 C 0.40369(7) 0.98295(5) 0.73986(16)
H9_4 H 0.446044 0.192272 0.002062
H5_7 H 0.2150(11) 0.0019(11) 0.411(4)
O8_4 O 0.44385(6) 0.12350(4) 0.86449(14)
C10_4 C 0.46283(9) 0.18531(6) 0.8801(2)
H7_4 H 0.506052 0.208169 0.887275
H8_4 H 0.449318 0.197654 0.761722
H10_4 H 0.4536(16) 0.1183(11) 0.744(4)
O4_7 O 0.20983(4) 0.98701(4) 0.53116(14)
C5_7 C 0.14802(6) 0.94418(7) 0.5468(2)
H2_7 H 0.125164 0.964549 0.553942
H3_7 H 0.135679 0.918330 0.428389
H4_7 H 0.141061 0.920438 0.668729
O4_8 O 0.01299(4) 0.22282(6) 0.53116(14)
C5_8 C 0.05582(7) 0.20384(9) 0.5468(2)
H2_8 H 0.035451 0.160615 0.553942
H3_8 H 0.081670 0.217349 0.428389
H4_8 H 0.079562 0.220623 0.668729
H9_5 H 0.807728 0.253771 0.002062
H5_8 H 0.9981(11) 0.2131(16) 0.411(4)
O8_5 O 0.87650(4) 0.32034(7) 0.86449(14)
C10_5 C 0.81469(6) 0.27751(11) 0.8801(2)
H7_5 H 0.791831 0.297882 0.887275
H8_5 H 0.802346 0.251663 0.761722
H10_5 H 0.8817(11) 0.3352(19) 0.744(4)
H9_6 H 0.746229 0.553956 0.002062
O4_9 O 0.77718(6) 0.79017(4) 0.53116(14)
C5_9 C 0.79616(9) 0.85198(6) 0.5468(2)
H2_9 H 0.839385 0.874836 0.553942
H3_9 H 0.782651 0.864321 0.428389
H4_9 H 0.779377 0.858939 0.668729
H5_9 H 0.7869(16) 0.7850(11) 0.411(4)
O8_6 O 0.67966(7) 0.55615(6) 0.86449(14)
C10_6 C 0.72249(11) 0.53717(9) 0.8801(2)
H7_6 H 0.702118 0.493948 0.887275
H8_6 H 0.748337 0.550682 0.761722
H10_6 H 0.6648(19) 0.5464(16) 0.744(4)
O4_10 O 0.54316(4) 0.65368(4) 0.19783(14)
C5_10 C 0.48135(6) 0.61085(7) 0.2135(2)
H2_10 H 0.458497 0.631216 0.220609
H3_10 H 0.469012 0.584997 0.095056
H4_10 H 0.474394 0.587105 0.335396
H5_10 H 0.5483(11) 0.6686(11) 0.078(4)
O4_11 O 0.34632(4) 0.88949(6) 0.19783(14)
C5_11 C 0.38915(7) 0.87051(9) 0.2135(2)
H2_11 H 0.368784 0.827282 0.220609
H3_11 H 0.415003 0.884016 0.095056
H4_11 H 0.412895 0.887290 0.335396
H5_11 H 0.3314(11) 0.8798(16) 0.078(4)
O4_12 O 0.11051(6) 0.45684(4) 0.19783(14)
C5_12 C 0.12949(9) 0.51865(6) 0.2135(2)
H2_12 H 0.172718 0.541503 0.220609
H3_12 H 0.115984 0.530988 0.095056
H4_12 H 0.112710 0.525606 0.335396
H5_12 H 0.1202(16) 0.4517(11) 0.078(4)
loop_
_geom_bond_atom_site_label_1
_geom_bond_atom_site_label_2
_geom_bond_site_symmetry_1
_geom_bond_site_symmetry_2
O4 Co1 1_555 1_555
C5 O4 1_555 1_555
H2 C5 1_555 1_555
H3 C5 1_555 1_555
H4 C5 1_555 1_555
O9 Co1 1_555 1_555
O12 Co1 1_555 1_555
O14 Co1 1_555 1_555
Co3 O9 1_555 1_555
O1 C1 1_555 1_555
O3 C3 1_555 1_555
C1 C2 1_555 1_555
C2 C3 1_555 1_555
C3 O2 1_555 1_555
C4 C1 1_555 1_555
H1 C4 1_555 1_555
O5 C6 1_555 1_555
O6 C8 1_555 1_555
C6 C7 1_555 1_555
C7 C4 1_555 1_555
C8 C7 1_555 1_555
C9 C2 1_555 1_555
H6 C9 1_555 1_555
C10 O8 1_555 1_555
H7 C10 1_555 1_555
H8 C10 1_555 1_555
H10 O8 1_555 1_555
Co4 O3 1_555 1_555
Co6 O5 1_555 1_555
Co7 O6 1_555 1_555
Co8 O5 1_555 1_555
O6 Co8 1_555 1_555
C6 C9 1_555 1_555
Co6 O7 1_555 1_555
O10 Co4 1_555 1_555
O1_2 C1_2 1_555 1_555
O3_2 C3_2 1_555 1_555
C1_2 C2_2 1_555 1_555
C2_2 C3_2 1_555 1_555
C3_2 O2_2 1_555 1_555
C4_2 C1_2 1_555 1_555
H1_2 C4_2 1_555 1_555
O5_2 C6_2 1_555 1_555
O6_2 C8_2 1_555 1_555
C6_2 C7_2 1_555 1_555
C7_2 C4_2 1_555 1_555
C8_2 C7_2 1_555 1_555
C9_2 C2_2 1_555 1_555
H6_2 C9_2 1_555 1_555
C10_2 O8_2 1_555 1_555
H7_2 C10_2 1_555 1_555
H8_2 C10_2 1_555 1_555
H10_2 O8_2 1_555 1_555
Co4_2 O3_2 1_555 1_555
Co6_2 O5_2 1_555 1_555
Co8_2 O5_2 1_555 1_555
O6_2 Co8_2 1_555 1_555
C6_2 C9_2 1_555 1_555
Co6_2 O7_2 1_555 1_555
O10_2 Co4_2 1_555 1_555
O4_2 Co1_2 1_555 1_555
C5_2 O4_2 1_555 1_555
H2_2 C5_2 1_555 1_555
H3_2 C5_2 1_555 1_555
H4_2 C5_2 1_555 1_555
O9_2 Co1_2 1_555 1_555
O12_2 Co1_2 1_555 1_555
O14_2 Co1_2 1_555 1_555
Co3_2 O9_2 1_555 1_555
Co1_3 O1_3 1_555 1_555
O1_3 C1_3 1_555 1_555
O2_3 Co1_3 1_555 1_555
O3_3 C3_3 1_555 1_555
C1_3 C2_3 1_555 1_555
C2_3 C3_3 1_555 1_555
C3_3 O2_3 1_555 1_555
C4_3 C1_3 1_555 1_555
H1_3 C4_3 1_555 1_555
O4_3 Co1_3 1_555 1_555
C5_3 O4_3 1_555 1_555
H2_3 C5_3 1_555 1_555
H3_3 C5_3 1_555 1_555
H4_3 C5_3 1_555 1_555
H5_3 O4_3 1_555 1_555
O5_3 C6_3 1_555 1_555
O6_3 C8_3 1_555 1_555
C6_3 C7_3 1_555 1_555
C7_3 C4_3 1_555 1_555
C8_3 C7_3 1_555 1_555
C9_3 C2_3 1_555 1_555
H6_3 C9_3 1_555 1_555
C10_3 O8_3 1_555 1_555
H7_3 C10_3 1_555 1_555
H8_3 C10_3 1_555 1_555
H10_3 O8_3 1_555 1_555
Co3_3 O2_3 1_555 1_555
Co4_3 O3_3 1_555 1_555
Co6_3 O5_3 1_555 1_555
Co8_3 O5_3 1_555 1_555
O9_3 Co1_3 1_555 1_555
O12_3 Co1_3 1_555 1_555
O14_3 Co1_3 1_555 1_555
O6_3 Co8_3 1_555 1_555
C6_3 C9_3 1_555 1_555
Co3_3 O9_3 1_555 1_555
Co6_3 O7_3 1_555 1_555
O10_3 Co4_3 1_555 1_555
O11_3 Co4_3 1_555 1_555
O9_3 C1_4 1_555 1_555
O11_3 Co3_3 1_555 1_555
C1_4 C2_4 1_555 1_555
C2_4 C3_4 1_555 1_555
C3_4 O11_3 1_555 1_555
C4_4 C1_4 1_555 1_555
H1_4 C4_4 1_555 1_555
O4_4 Co3_3 1_555 1_555
C5_4 O4_4 1_555 1_555
H2_4 C5_4 1_555 1_555
H3_4 C5_4 1_555 1_555
H4_4 C5_4 1_555 1_555
H5_4 O4_4 1_555 1_555
O5_4 C6_4 1_555 1_555
O6_4 C8_4 1_555 1_555
O7_4 C8_4 1_555 1_555
C6_4 C7_4 1_555 1_555
C7_4 C4_4 1_555 1_555
C8_4 C7_4 1_555 1_555
C9_4 C2_4 1_555 1_555
H6_4 C9_4 1_555 1_555
Co7_2 O7_4 1_555 1_555
O10_3 Co3_3 1_555 1_555
O14_4 Co3_3 1_555 1_555
C6_4 C9_4 1_555 1_555
O9 C1_5 1_555 1_555
O11 Co3 1_555 1_555
C1_5 C2_5 1_555 1_555
C2_5 C3_5 1_555 1_555
C3_5 O11 1_555 1_555
C4_5 C1_5 1_555 1_555
H1_5 C4_5 1_555 1_555
O4_5 Co3 1_555 1_555
C5_5 O4_5 1_555 1_555
H2_5 C5_5 1_555 1_555
H3_5 C5_5 1_555 1_555
H4_5 C5_5 1_555 1_555
H5_5 O4_5 1_555 1_555
O5_5 C6_5 1_555 1_555
O6_5 C8_5 1_555 1_555
O7_5 C8_5 1_555 1_555
C6_5 C7_5 1_555 1_555
C7_5 C4_5 1_555 1_555
C8_5 C7_5 1_555 1_555
C9_5 C2_5 1_555 1_555
H6_5 C9_5 1_555 1_555
Co7_3 O7_5 1_555 1_555
O14_5 Co3 1_555 1_555
C6_5 C9_5 1_555 1_555
O9_2 C1_6 1_555 1_555
O11_2 Co3_2 1_555 1_555
C1_6 C2_6 1_555 1_555
C2_6 C3_6 1_555 1_555
C3_6 O11_2 1_555 1_555
C4_6 C1_6 1_555 1_555
H1_6 C4_6 1_555 1_555
O4_6 Co3_2 1_555 1_555
C5_6 O4_6 1_555 1_555
H2_6 C5_6 1_555 1_555
H3_6 C5_6 1_555 1_555
H4_6 C5_6 1_555 1_555
H5_6 O4_6 1_555 1_555
O5_6 C6_6 1_555 1_555
O6_6 C8_6 1_555 1_555
O7_6 C8_6 1_555 1_555
C6_6 C7_6 1_555 1_555
C7_6 C4_6 1_555 1_555
C8_6 C7_6 1_555 1_555
C9_6 C2_6 1_555 1_555
H6_6 C9_6 1_555 1_555
Co7 O7_6 1_555 1_555
Co8 O6_6 1_555 1_555
Co6 O5_6 1_555 1_555
O14_6 Co3_2 1_555 1_555
O6_6 Co6 1_555 1_555
C6_6 C9_6 1_555 1_555
O10_2 C1_7 1_555 1_555
C4_7 C1_7 1_555 1_555
H1_7 C4_7 1_555 1_555
O6_7 C8_7 1_555 1_555
O7_7 C8_7 1_555 1_555
C7_7 C4_7 1_555 1_555
C8_7 C7_7 1_555 1_555
Co8_3 O7_7 1_555 1_555
Co6_3 O6_7 1_555 1_555
O14_6 C3_7 1_555 1_555
C2_7 C3_7 1_555 1_555
C3_7 O12_2 1_555 1_555
O5_7 C6_7 1_555 1_555
C9_7 C2_7 1_555 1_555
H6_7 C9_7 1_555 1_555
Co7_3 O5_7 1_555 1_555
C6_7 C9_7 1_555 1_555
O14_4 C3_8 1_555 1_555
C2_8 C3_8 1_555 1_555
C3_8 O12_3 1_555 1_555
O5_8 C6_8 1_555 1_555
C9_8 C2_8 1_555 1_555
H6_8 C9_8 1_555 1_555
Co8 O5_8 1_555 1_555
Co7 O5_8 1_555 1_555
C6_8 C9_8 1_555 1_555
O10_3 C1_8 1_555 1_555
C4_8 C1_8 1_555 1_555
H1_8 C4_8 1_555 1_555
O6_8 C8_8 1_555 1_555
O7_8 C8_8 1_555 1_555
C7_8 C4_8 1_555 1_555
C8_8 C7_8 1_555 1_555
Co8 O7_8 1_555 1_555
Co6 O6_8 1_555 1_555
O14_5 C3_9 1_555 1_555
C2_9 C3_9 1_555 1_555
C3_9 O12 1_555 1_555
O5_9 C6_9 1_555 1_555
C9_9 C2_9 1_555 1_555
H6_9 C9_9 1_555 1_555
Co7_2 O5_9 1_555 1_555
C6_9 C9_9 1_555 1_555
O10 C1_9 1_555 1_555
C4_9 C1_9 1_555 1_555
H1_9 C4_9 1_555 1_555
O6_9 C8_9 1_555 1_555
O7_9 C8_9 1_555 1_555
C7_9 C4_9 1_555 1_555
C8_9 C7_9 1_555 1_555
Co8_2 O7_9 1_555 1_555
Co6_2 O6_9 1_555 1_555
C10_4 O8_4 1_555 1_555
H7_4 C10_4 1_555 1_555
H8_4 C10_4 1_555 1_555
H10_4 O8_4 1_555 1_555
O4_7 Co6_2 1_555 1_555
C5_7 O4_7 1_555 1_555
H2_7 C5_7 1_555 1_555
H3_7 C5_7 1_555 1_555
H4_7 C5_7 1_555 1_555
O4_8 Co6_3 1_555 1_555
C5_8 O4_8 1_555 1_555
H2_8 C5_8 1_555 1_555
H3_8 C5_8 1_555 1_555
H4_8 C5_8 1_555 1_555
C10_5 O8_5 1_555 1_555
H7_5 C10_5 1_555 1_555
H8_5 C10_5 1_555 1_555
H10_5 O8_5 1_555 1_555
O4_9 Co6 1_555 1_555
C5_9 O4_9 1_555 1_555
H2_9 C5_9 1_555 1_555
H3_9 C5_9 1_555 1_555
H4_9 C5_9 1_555 1_555
H5_9 O4_9 1_555 1_555
C10_6 O8_6 1_555 1_555
H7_6 C10_6 1_555 1_555
H8_6 C10_6 1_555 1_555
H10_6 O8_6 1_555 1_555
O4_10 Co8 1_555 1_555
C5_10 O4_10 1_555 1_555
H2_10 C5_10 1_555 1_555
H3_10 C5_10 1_555 1_555
H4_10 C5_10 1_555 1_555
H5_10 O4_10 1_555 1_555
O4_11 Co8_2 1_555 1_555
C5_11 O4_11 1_555 1_555
H2_11 C5_11 1_555 1_555
H3_11 C5_11 1_555 1_555
H4_11 C5_11 1_555 1_555
H5_11 O4_11 1_555 1_555
O4_12 Co8_3 1_555 1_555
C5_12 O4_12 1_555 1_555
H2_12 C5_12 1_555 1_555
H3_12 C5_12 1_555 1_555
H4_12 C5_12 1_555 1_555
H5_12 O4_12 1_555 1_555

#END
