
###############################################################################
#
# This file contains modified crystal structure data generated from the
# MOF subset of the Cambridge Structural Database (CSD) v543 
# hosted by the Cambridge Crystallographic Data Centre (CCDC).
#
# This work is licensed under the Creative Commons
# Attribution-NonCommercial-ShareAlike 4.0 International License.
# To view a copy of this license, visit
# http://creativecommons.org/licenses/by-nc-sa/4.0/
# or send a letter to
# Creative Commons, PO Box 1866, Mountain View, CA 94042, USA.
#
# CIF created using the CSD Python API on 29 September 2022
# The structure has been converted into the P1 space group
# The structure has a 3D framework
# The original CSD entry ZOHPUK is in the rhombohedral crystal system
# The framework has been calculated to contain at least 10.0% void space
# The void calculation uses a probe of radius 1.32A, grid spacing 0.4
#
###############################################################################

data_ZOHPUK
_chemical_formula_moiety         '(C90 H18 Co12 O66)n'
_symmetry_cell_setting           triclinic
_symmetry_space_group_name_H-M   'P 1'
_symmetry_Int_Tables_number      1
_space_group_name_Hall           'P 1'
loop_
_symmetry_equiv_pos_site_id
_symmetry_equiv_pos_as_xyz
1 x,y,z
_cell_length_a                   25.844(4)
_cell_length_b                   25.844(4)
_cell_length_c                   6.8710(14)
_cell_angle_alpha                90
_cell_angle_beta                 90
_cell_angle_gamma                120
_cell_volume                     3974.39
loop_
_atom_site_label
_atom_site_type_symbol
_atom_site_fract_x
_atom_site_fract_y
_atom_site_fract_z
O3 O 0.30172(6) 0.07193(6) 0.09405(17)
Co3 Co 0.30016(2) 0.01857(2) 0.31395(3)
Co7 Co 0.36651(2) 0.31476(2) 0.01938(3)
O1 O 0.35573(5) 0.08169(5) 0.50274(16)
C1 C 0.22219(10) 0.01878(11) 0.4225(3)
O2 O 0.32352(11) 0.02768(7) 0.85489(17)
C2 C 0.34401(7) 0.12169(7) 0.5875(2)
O4 O 0.18214(15) 0.0213(2) 0.4610(5)
C3 C 0.34886(7) 0.16884(7) 0.4736(2)
C4 C 0.32769(7) 0.11974(7) 0.7861(2)
H1 H 0.359347 0.170502 0.340322
C5 C 0.31726(7) 0.07027(7) 0.9213(2)
O5 O 0.31094(5) 0.25164(5) 0.83059(16)
O6 O 0.34315(11) 0.30565(7) 0.47844(17)
O7 O 0.36495(6) 0.26140(6) 0.23928(17)
C6 C 0.32266(7) 0.21164(7) 0.7458(2)
C7 C 0.31781(7) 0.16449(7) 0.8597(2)
C8 C 0.33898(7) 0.21359(7) 0.5472(2)
H2 H 0.307320 0.162831 0.993011
C9 C 0.34941(7) 0.26306(7) 0.4120(2)
Co2 Co 0.38508(3) 0.03317(2) 0.64728(3)
C10 C 0.46326(15) 0.11114(10) 0.7558(3)
O8 O 0.50583(25) 0.15119(15) 0.7943(5)
Co5 Co 0.28159(3) 0.30016(2) 0.68605(3)
Co8 Co 0.35190(2) 0.38508(3) 0.35272(3)
O11 O 0.37083(13) 0.00981(11) 0.18822(17)
O14 O 0.43688(8) 0.03161(6) 0.42738(17)
Co4 Co 0.31476(2) 0.94826(3) 0.98062(3)
O9 O 0.39263(7) 0.97760(5) 0.83607(16)
O10 O 0.25164(5) 0.94071(7) 0.16941(16)
O12 O 0.30565(7) 0.96251(13) 0.52156(17)
Co4_2 Co 0.05174(3) 0.36651(4) 0.98062(3)
O9_2 O 0.02240(5) 0.41502(9) 0.83607(16)
O10_2 O 0.05929(7) 0.31094(9) 0.16941(16)
O12_2 O 0.03749(13) 0.34315(15) 0.52156(17)
O3_2 O 0.92807(6) 0.22979(8) 0.09405(17)
Co3_2 Co 0.98143(2) 0.28159(3) 0.31395(3)
Co7_2 Co 0.68524(2) 0.05174(3) 0.01938(3)
O1_2 O 0.91831(5) 0.27404(7) 0.50274(16)
C1_2 C 0.98122(11) 0.20341(15) 0.4225(3)
O2_2 O 0.97232(7) 0.29584(13) 0.85489(17)
C2_2 C 0.87831(7) 0.22232(10) 0.5875(2)
O4_2 O 0.9787(2) 0.16084(25) 0.4610(5)
C3_2 C 0.83116(7) 0.18002(10) 0.4736(2)
C4_2 C 0.88026(7) 0.20795(10) 0.7861(2)
H1_2 H 0.829498 0.188845 0.340322
C5_2 C 0.92973(7) 0.24699(10) 0.9213(2)
O5_2 O 0.74836(5) 0.05929(7) 0.83059(16)
O6_2 O 0.69435(7) 0.03749(13) 0.47844(17)
O7_2 O 0.73860(6) 0.10354(8) 0.23928(17)
C6_2 C 0.78836(7) 0.11101(10) 0.7458(2)
C7_2 C 0.83551(7) 0.15331(10) 0.8597(2)
C8_2 C 0.78641(7) 0.12538(10) 0.5472(2)
H2_2 H 0.837169 0.144488 0.993011
C9_2 C 0.73694(7) 0.08634(10) 0.4120(2)
Co2_2 Co 0.96683(2) 0.35190(4) 0.64728(3)
C10_2 C 0.88886(10) 0.35211(18) 0.7558(3)
O8_2 O 0.84881(15) 0.35463(29) 0.7943(5)
O11_2 O 0.99019(11) 0.36101(17) 0.18822(17)
O14_2 O 0.96839(6) 0.40526(10) 0.42738(17)
Co5_2 Co 0.69984(2) 0.98143(4) 0.68605(3)
Co8_2 Co 0.61492(3) 0.96683(4) 0.35272(3)
Co5_3 Co 0.01857(4) 0.71841(3) 0.68605(3)
Co8_3 Co 0.03317(4) 0.64810(2) 0.35272(3)
O3_3 O 0.77021(8) 0.69828(6) 0.09405(17)
Co3_3 Co 0.71841(3) 0.69984(2) 0.31395(3)
Co7_3 Co 0.94826(3) 0.63349(2) 0.01938(3)
O1_3 O 0.72596(7) 0.64427(5) 0.50274(16)
C1_3 C 0.79659(15) 0.77781(10) 0.4225(3)
O2_3 O 0.70416(13) 0.67648(11) 0.85489(17)
C2_3 C 0.77768(10) 0.65599(7) 0.5875(2)
O4_3 O 0.83916(25) 0.81786(15) 0.4610(5)
C3_3 C 0.81998(10) 0.65114(7) 0.4736(2)
C4_3 C 0.79205(10) 0.67231(7) 0.7861(2)
H1_3 H 0.811155 0.640653 0.340322
C5_3 C 0.75301(10) 0.68274(7) 0.9213(2)
O5_3 O 0.94071(7) 0.68906(5) 0.83059(16)
O6_3 O 0.96251(13) 0.65685(11) 0.47844(17)
O7_3 O 0.89646(8) 0.63505(6) 0.23928(17)
C6_3 C 0.88899(10) 0.67734(7) 0.7458(2)
C7_3 C 0.84669(10) 0.68219(7) 0.8597(2)
C8_3 C 0.87462(10) 0.66102(7) 0.5472(2)
H2_3 H 0.855512 0.692680 0.993011
C9_3 C 0.91366(10) 0.65059(7) 0.4120(2)
Co2_3 Co 0.64810(4) 0.61492(3) 0.64728(3)
C10_3 C 0.64789(18) 0.53674(15) 0.7558(3)
O8_3 O 0.64537(29) 0.49417(25) 0.7943(5)
Co4_3 Co 0.63349(4) 0.68524(2) 0.98062(3)
O9_3 O 0.58498(9) 0.60737(7) 0.83607(16)
O10_3 O 0.68906(9) 0.74836(5) 0.16941(16)
O11_3 O 0.63899(17) 0.62917(13) 0.18822(17)
O12_3 O 0.65685(15) 0.69435(7) 0.52156(17)
O14_3 O 0.59474(10) 0.56312(8) 0.42738(17)
C10_4 C 0.12992(15) 0.44448(10) 0.0892(3)
O8_4 O 0.17249(25) 0.48453(15) 0.1277(5)
C2_4 C 0.01068(7) 0.45502(7) 0.9208(2)
C3_4 C 0.01553(7) 0.50217(7) 0.8069(2)
H1_4 H 0.026014 0.503835 0.673655
O6_4 O 0.00981(11) 0.63899(7) 0.81178(17)
O7_4 O 0.03161(6) 0.59474(6) 0.57262(17)
C8_4 C 0.00564(7) 0.54693(7) 0.8806(2)
C9_4 C 0.01607(7) 0.59640(7) 0.7454(2)
O14_4 O 0.10354(8) 0.36495(6) 0.76072(17)
C4_4 C 0.99436(7) 0.45307(7) 0.1194(2)
C5_4 C 0.98393(7) 0.40360(7) 0.2546(2)
O5_4 O 0.97760(5) 0.58498(5) 0.16393(16)
C6_4 C 0.98932(7) 0.54498(7) 0.0792(2)
C7_4 C 0.98447(7) 0.49783(7) 0.1931(2)
H2_4 H 0.973986 0.496165 0.326345
C4_5 C 0.54693(7) 0.54128(10) 0.1194(2)
C5_5 C 0.59640(7) 0.58032(10) 0.2546(2)
O5_5 O 0.41502(5) 0.39263(7) 0.16393(16)
C6_5 C 0.45502(7) 0.44435(10) 0.0792(2)
C7_5 C 0.50217(7) 0.48665(10) 0.1931(2)
H2_5 H 0.503835 0.477822 0.326345
C10_5 C 0.55552(10) 0.68545(18) 0.0892(3)
O8_5 O 0.51547(15) 0.68797(29) 0.1277(5)
C2_5 C 0.54498(7) 0.55565(10) 0.9208(2)
C3_5 C 0.49783(7) 0.51335(10) 0.8069(2)
H1_5 H 0.496165 0.522178 0.673655
O6_5 O 0.36101(7) 0.37083(13) 0.81178(17)
O7_5 O 0.40526(6) 0.43688(8) 0.57262(17)
C8_5 C 0.45307(7) 0.45872(10) 0.8806(2)
C9_5 C 0.40360(7) 0.41968(10) 0.7454(2)
O14_5 O 0.63505(6) 0.73860(10) 0.76072(17)
C4_6 C 0.45872(10) 0.00564(7) 0.1194(2)
C5_6 C 0.41968(10) 0.01607(7) 0.2546(2)
O5_6 O 0.60737(7) 0.02240(5) 0.16393(16)
C6_6 C 0.55565(10) 0.01068(7) 0.0792(2)
C7_6 C 0.51335(10) 0.01553(7) 0.1931(2)
H2_6 H 0.522178 0.026014 0.326345
C10_6 C 0.31455(18) 0.87008(15) 0.0892(3)
O8_6 O 0.31203(29) 0.82751(25) 0.1277(5)
C2_6 C 0.44435(10) 0.98932(7) 0.9208(2)
C3_6 C 0.48665(10) 0.98447(7) 0.8069(2)
H1_6 H 0.477822 0.973986 0.673655
O6_6 O 0.62917(13) 0.99019(11) 0.81178(17)
O7_6 O 0.56312(8) 0.96839(6) 0.57262(17)
C8_6 C 0.54128(10) 0.99436(7) 0.8806(2)
C9_6 C 0.58032(10) 0.98393(7) 0.7454(2)
O14_6 O 0.26140(10) 0.89646(8) 0.76072(17)
C2_7 C 0.67734(7) 0.78836(7) 0.2542(2)
C3_7 C 0.68219(7) 0.83551(7) 0.1403(2)
C4_7 C 0.66102(7) 0.78641(7) 0.4528(2)
H1_7 H 0.692680 0.837169 0.006989
C5_7 C 0.65059(7) 0.73694(7) 0.5880(2)
O5_7 O 0.64427(5) 0.91831(5) 0.49726(16)
O6_7 O 0.67648(11) 0.97232(7) 0.14511(17)
C6_7 C 0.65599(7) 0.87831(7) 0.4125(2)
C7_7 C 0.65114(7) 0.83116(7) 0.5264(2)
C8_7 C 0.67231(7) 0.88026(7) 0.2139(2)
H2_7 H 0.640653 0.829498 0.659678
C9_7 C 0.68274(7) 0.92973(7) 0.0787(2)
O7_7 O 0.69828(6) 0.92807(6) 0.90595(17)
C2_8 C 0.21164(7) 0.88899(10) 0.2542(2)
C3_8 C 0.16449(7) 0.84669(10) 0.1403(2)
C4_8 C 0.21359(7) 0.87462(10) 0.4528(2)
H1_8 H 0.162831 0.855512 0.006989
C5_8 C 0.26306(7) 0.91366(10) 0.5880(2)
O5_8 O 0.08169(5) 0.72596(7) 0.49726(16)
O6_8 O 0.02768(7) 0.70416(13) 0.14511(17)
C6_8 C 0.12169(7) 0.77768(10) 0.4125(2)
C7_8 C 0.16884(7) 0.81998(10) 0.5264(2)
C8_8 C 0.11974(7) 0.79205(10) 0.2139(2)
H2_8 H 0.170502 0.811155 0.659678
C9_8 C 0.07027(7) 0.75301(10) 0.0787(2)
O7_8 O 0.07193(6) 0.77021(8) 0.90595(17)
C2_9 C 0.11101(10) 0.32266(7) 0.2542(2)
C3_9 C 0.15331(10) 0.31781(7) 0.1403(2)
C4_9 C 0.12538(10) 0.33898(7) 0.4528(2)
H1_9 H 0.144488 0.307320 0.006989
C5_9 C 0.08634(10) 0.34941(7) 0.5880(2)
O5_9 O 0.27404(7) 0.35573(5) 0.49726(16)
O6_9 O 0.29584(13) 0.32352(11) 0.14511(17)
C6_9 C 0.22232(10) 0.34401(7) 0.4125(2)
C7_9 C 0.18002(10) 0.34886(7) 0.5264(2)
C8_9 C 0.20795(10) 0.32769(7) 0.2139(2)
H2_9 H 0.188845 0.359347 0.659678
C9_9 C 0.24699(10) 0.31726(7) 0.0787(2)
O7_9 O 0.22979(8) 0.30172(6) 0.90595(17)
C1_4 C 0.77781(10) 0.98122(11) 0.5775(3)
O4_4 O 0.81786(15) 0.9787(2) 0.5390(5)
C10_7 C 0.53674(15) 0.88886(10) 0.2442(3)
O8_7 O 0.49417(25) 0.84881(15) 0.2057(5)
C1_5 C 0.01878(11) 0.79659(15) 0.5775(3)
O4_5 O 0.0213(2) 0.83916(25) 0.5390(5)
C10_8 C 0.11114(10) 0.64789(18) 0.2442(3)
O8_8 O 0.15119(15) 0.64537(29) 0.2057(5)
C1_6 C 0.20341(15) 0.22219(10) 0.5775(3)
O4_6 O 0.16084(25) 0.18214(15) 0.5390(5)
C10_9 C 0.35211(18) 0.46326(15) 0.2442(3)
O8_9 O 0.35463(29) 0.50583(25) 0.2057(5)
C10_10 C 0.87008(15) 0.55552(10) 0.9108(3)
O8_10 O 0.82751(25) 0.51547(15) 0.8723(5)
C10_11 C 0.44448(10) 0.31455(18) 0.9108(3)
O8_11 O 0.48453(15) 0.31203(29) 0.8723(5)
C10_12 C 0.68545(18) 0.12992(15) 0.9108(3)
O8_12 O 0.68797(29) 0.17249(25) 0.8723(5)
loop_
_geom_bond_atom_site_label_1
_geom_bond_atom_site_label_2
_geom_bond_site_symmetry_1
_geom_bond_site_symmetry_2
Co3 O3 1_555 1_555
Co3 O1 1_555 1_555
O1 C2 1_555 1_555
C1 Co3 1_555 1_555
O2 C5 1_555 1_555
C2 C3 1_555 1_555
O4 C1 1_555 1_555
C3 H1 1_555 1_555
C4 C2 1_555 1_555
C5 C4 1_555 1_555
O5 C6 1_555 1_555
O6 C9 1_555 1_555
O7 C9 1_555 1_555
C6 C7 1_555 1_555
C7 C4 1_555 1_555
C8 C3 1_555 1_555
H2 C7 1_555 1_555
C9 C8 1_555 1_555
Co2 O1 1_555 1_555
C10 Co2 1_555 1_555
O8 C10 1_555 1_555
Co5 O5 1_555 1_555
Co7 O7 1_555 1_555
Co8 O6 1_555 1_555
O11 Co3 1_555 1_555
O14 Co2 1_555 1_555
O2 Co2 1_555 1_555
O6 Co5 1_555 1_555
C6 C8 1_555 1_555
Co4 O9 1_555 1_555
Co4_2 O9_2 1_555 1_555
Co3_2 O3_2 1_555 1_555
Co3_2 O1_2 1_555 1_555
O1_2 C2_2 1_555 1_555
C1_2 Co3_2 1_555 1_555
O2_2 C5_2 1_555 1_555
C2_2 C3_2 1_555 1_555
O4_2 C1_2 1_555 1_555
C3_2 H1_2 1_555 1_555
C4_2 C2_2 1_555 1_555
C5_2 C4_2 1_555 1_555
O5_2 C6_2 1_555 1_555
O6_2 C9_2 1_555 1_555
O7_2 C9_2 1_555 1_555
C6_2 C7_2 1_555 1_555
C7_2 C4_2 1_555 1_555
C8_2 C3_2 1_555 1_555
H2_2 C7_2 1_555 1_555
C9_2 C8_2 1_555 1_555
Co2_2 O1_2 1_555 1_555
C10_2 Co2_2 1_555 1_555
O8_2 C10_2 1_555 1_555
Co7_2 O7_2 1_555 1_555
O11_2 Co3_2 1_555 1_555
O14_2 Co2_2 1_555 1_555
O2_2 Co2_2 1_555 1_555
C6_2 C8_2 1_555 1_555
Co3_3 O3_3 1_555 1_555
Co3_3 O1_3 1_555 1_555
O1_3 C2_3 1_555 1_555
C1_3 Co3_3 1_555 1_555
O2_3 C5_3 1_555 1_555
C2_3 C3_3 1_555 1_555
O4_3 C1_3 1_555 1_555
C3_3 H1_3 1_555 1_555
C4_3 C2_3 1_555 1_555
C5_3 C4_3 1_555 1_555
O5_3 C6_3 1_555 1_555
O6_3 C9_3 1_555 1_555
O7_3 C9_3 1_555 1_555
C6_3 C7_3 1_555 1_555
C7_3 C4_3 1_555 1_555
C8_3 C3_3 1_555 1_555
H2_3 C7_3 1_555 1_555
C9_3 C8_3 1_555 1_555
Co2_3 O1_3 1_555 1_555
C10_3 Co2_3 1_555 1_555
O8_3 C10_3 1_555 1_555
Co4_3 O2_3 1_555 1_555
Co7_3 O7_3 1_555 1_555
O9_3 Co2_3 1_555 1_555
O10_3 Co3_3 1_555 1_555
O11_3 Co3_3 1_555 1_555
O12_3 Co3_3 1_555 1_555
O14_3 Co2_3 1_555 1_555
O2_3 Co2_3 1_555 1_555
C6_3 C8_3 1_555 1_555
Co2_3 O12_3 1_555 1_555
Co4_3 O9_3 1_555 1_555
O8_4 C10_4 1_555 1_555
O9_2 C2_4 1_555 1_555
C2_4 C3_4 1_555 1_555
C3_4 H1_4 1_555 1_555
O6_4 C9_4 1_555 1_555
O7_4 C9_4 1_555 1_555
C8_4 C3_4 1_555 1_555
C9_4 C8_4 1_555 1_555
Co8_3 O7_4 1_555 1_555
Co5_3 O6_4 1_555 1_555
O14_4 Co4_2 1_555 1_555
O11_2 C5_4 1_555 1_555
O14_2 C5_4 1_555 1_555
C5_4 C4_4 1_555 1_555
O5_4 C6_4 1_555 1_555
C6_4 C7_4 1_555 1_555
C7_4 C4_4 1_555 1_555
H2_4 C7_4 1_555 1_555
Co7_3 O5_4 1_555 1_555
O11_3 C5_5 1_555 1_555
O14_3 C5_5 1_555 1_555
C5_5 C4_5 1_555 1_555
O5_5 C6_5 1_555 1_555
C6_5 C7_5 1_555 1_555
C7_5 C4_5 1_555 1_555
H2_5 C7_5 1_555 1_555
O8_5 C10_5 1_555 1_555
Co7 O5_5 1_555 1_555
Co8 O5_5 1_555 1_555
O9_3 C2_5 1_555 1_555
C2_5 C3_5 1_555 1_555
C3_5 H1_5 1_555 1_555
O6_5 C9_5 1_555 1_555
O7_5 C9_5 1_555 1_555
C8_5 C3_5 1_555 1_555
C9_5 C8_5 1_555 1_555
Co8 O7_5 1_555 1_555
Co5 O6_5 1_555 1_555
O14_5 Co4_3 1_555 1_555
O11 C5_6 1_555 1_555
O14 C5_6 1_555 1_555
C5_6 C4_6 1_555 1_555
O5_6 C6_6 1_555 1_555
C6_6 C7_6 1_555 1_555
C7_6 C4_6 1_555 1_555
H2_6 C7_6 1_555 1_555
Co7_2 O5_6 1_555 1_555
O8_6 C10_6 1_555 1_555
O9 C2_6 1_555 1_555
C2_6 C3_6 1_555 1_555
C3_6 H1_6 1_555 1_555
O6_6 C9_6 1_555 1_555
O7_6 C9_6 1_555 1_555
C8_6 C3_6 1_555 1_555
C9_6 C8_6 1_555 1_555
Co8_2 O7_6 1_555 1_555
Co5_2 O6_6 1_555 1_555
O14_6 Co4 1_555 1_555
O10_3 C2_7 1_555 1_555
O12_3 C5_7 1_555 1_555
O14_5 C5_7 1_555 1_555
C2_7 C3_7 1_555 1_555
C3_7 H1_7 1_555 1_555
C4_7 C2_7 1_555 1_555
C5_7 C4_7 1_555 1_555
O5_7 C6_7 1_555 1_555
O6_7 C9_7 1_555 1_555
C6_7 C7_7 1_555 1_555
C7_7 C4_7 1_555 1_555
C8_7 C3_7 1_555 1_555
H2_7 C7_7 1_555 1_555
C9_7 C8_7 1_555 1_555
Co8_2 O5_7 1_555 1_555
Co5_2 O5_7 1_555 1_555
O6_7 Co8_2 1_555 1_555
C6_7 C8_7 1_555 1_555
Co5_2 O7_7 1_555 1_555
O10 C2_8 1_555 1_555
O12 C5_8 1_555 1_555
O14_6 C5_8 1_555 1_555
C2_8 C3_8 1_555 1_555
C3_8 H1_8 1_555 1_555
C4_8 C2_8 1_555 1_555
C5_8 C4_8 1_555 1_555
O5_8 C6_8 1_555 1_555
O6_8 C9_8 1_555 1_555
C6_8 C7_8 1_555 1_555
C7_8 C4_8 1_555 1_555
C8_8 C3_8 1_555 1_555
H2_8 C7_8 1_555 1_555
C9_8 C8_8 1_555 1_555
Co8_3 O5_8 1_555 1_555
Co5_3 O5_8 1_555 1_555
O6_8 Co8_3 1_555 1_555
C6_8 C8_8 1_555 1_555
Co5_3 O7_8 1_555 1_555
O10_2 C2_9 1_555 1_555
O12_2 C5_9 1_555 1_555
O14_4 C5_9 1_555 1_555
C2_9 C3_9 1_555 1_555
C3_9 H1_9 1_555 1_555
C4_9 C2_9 1_555 1_555
C5_9 C4_9 1_555 1_555
O5_9 C6_9 1_555 1_555
O6_9 C9_9 1_555 1_555
C6_9 C7_9 1_555 1_555
C7_9 C4_9 1_555 1_555
C8_9 C3_9 1_555 1_555
H2_9 C7_9 1_555 1_555
C9_9 C8_9 1_555 1_555
Co8 O5_9 1_555 1_555
Co5 O5_9 1_555 1_555
Co7 O6_9 1_555 1_555
O6_9 Co8 1_555 1_555
C6_9 C8_9 1_555 1_555
Co5 O7_9 1_555 1_555
C1_4 Co5_2 1_555 1_555
O4_4 C1_4 1_555 1_555
C10_7 Co8_2 1_555 1_555
O8_7 C10_7 1_555 1_555
C1_5 Co5_3 1_555 1_555
O4_5 C1_5 1_555 1_555
C10_8 Co8_3 1_555 1_555
O8_8 C10_8 1_555 1_555
C1_6 Co5 1_555 1_555
O4_6 C1_6 1_555 1_555
C10_9 Co8 1_555 1_555
O8_9 C10_9 1_555 1_555
O8_10 C10_10 1_555 1_555
O8_11 C10_11 1_555 1_555
O8_12 C10_12 1_555 1_555

#END
