
###############################################################################
#
# This file contains modified crystal structure data generated from the
# MOF subset of the Cambridge Structural Database (CSD) v543 
# hosted by the Cambridge Crystallographic Data Centre (CCDC).
#
# This work is licensed under the Creative Commons
# Attribution-NonCommercial-ShareAlike 4.0 International License.
# To view a copy of this license, visit
# http://creativecommons.org/licenses/by-nc-sa/4.0/
# or send a letter to
# Creative Commons, PO Box 1866, Mountain View, CA 94042, USA.
#
# CIF created using the CSD Python API on 29 September 2022
# The structure has been converted into the P1 space group
# The structure has a 3D framework
# The original CSD entry ZOHPEU is in the rhombohedral crystal system
# The framework has been calculated to contain at least 10.0% void space
# The void calculation uses a probe of radius 1.32A, grid spacing 0.4
#
###############################################################################

data_ZOHPEU
_chemical_formula_moiety         '(C90 H18 Mg13 O66)n'
_symmetry_cell_setting           triclinic
_symmetry_space_group_name_H-M   'P 1'
_symmetry_Int_Tables_number      1
_space_group_name_Hall           'P 1'
loop_
_symmetry_equiv_pos_site_id
_symmetry_equiv_pos_as_xyz
1 x,y,z
_cell_length_a                   25.822(4)
_cell_length_b                   25.822(4)
_cell_length_c                   6.9350(14)
_cell_angle_alpha                90
_cell_angle_beta                 90
_cell_angle_gamma                120
_cell_volume                     4004.58
loop_
_atom_site_label
_atom_site_type_symbol
_atom_site_fract_x
_atom_site_fract_y
_atom_site_fract_z
Mg1 Mg 0.36214(2) 0.04833(2) 0.02439(7)
O12 O 0.36205(6) 0.10189(4) 0.23939(14)
O16 O 0.41474(4) 0.02280(6) 0.16081(14)
O4 O 0.48665(14) 0.18762(13) 0.8765(5)
C5 C 0.44791(11) 0.13919(12) 0.9089(3)
O15 O 0.31053(6) 0.05860(4) 0.82748(14)
O1 O 0.29677(4) 0.97066(4) 0.14333(14)
O3 O 0.05860(4) 0.74807(4) 0.17252(14)
C1 C 0.24750(6) 0.92816(6) 0.07826(19)
C2 C 0.20794(6) 0.87963(6) 0.21435(19)
C3 C 0.15313(6) 0.83502(6) 0.14236(19)
H1 H 0.144414 0.836449 0.010036
C4 C 0.11038(6) 0.78828(6) 0.25566(19)
O5 O 0.03656(4) 0.69601(4) 0.52334(14)
O6 O 0.10189(4) 0.73985(4) 0.76061(14)
O7 O 0.27473(4) 0.91860(4) 0.49415(14)
C6 C 0.08583(6) 0.73851(6) 0.58841(19)
C7 C 0.12539(6) 0.78704(6) 0.45232(19)
C8 C 0.18020(6) 0.83165(6) 0.52431(19)
H2 H 0.188919 0.830218 0.656631
C9 C 0.22295(6) 0.87839(6) 0.41101(19)
O8 O 0.18762(13) 0.70097(19) 0.1235(5)
C10 C 0.13919(12) 0.69128(16) 0.0911(3)
Mg3 Mg 0.35286(3) 0.97119(2) 0.35772(7)
Mg5 Mg 0.28500(2) 0.98048(3) 0.69106(7)
Mg6 Mg 0.04833(2) 0.68619(3) 0.97561(7)
O2 O 0.23144(4) 0.92682(4) 0.90606(14)
O9 O 0.36267(4) 0.99278(6) 0.81000(14)
O14 O 0.02280(6) 0.60807(4) 0.83919(14)
Mg7 Mg 0.98048(3) 0.69547(2) 0.30894(7)
Mg8 Mg 0.97119(2) 0.61834(2) 0.64228(7)
O11 O 0.99278(6) 0.63010(4) 0.19000(14)
O10 O 0.97066(4) 0.67389(6) 0.85667(14)
O1_2 O 0.02934(4) 0.32611(6) 0.14333(14)
O3_2 O 0.25193(4) 0.31053(6) 0.17252(14)
C1_2 C 0.07184(6) 0.31934(8) 0.07826(19)
C2_2 C 0.12037(6) 0.32831(8) 0.21435(19)
C3_2 C 0.16498(6) 0.31811(8) 0.14236(19)
H1_2 H 0.163551 0.307965 0.010036
C4_2 C 0.21172(6) 0.32210(8) 0.25566(19)
O5_2 O 0.30399(4) 0.34056(6) 0.52334(14)
O6_2 O 0.26015(4) 0.36205(6) 0.76061(14)
O7_2 O 0.08140(4) 0.35614(6) 0.49415(14)
C6_2 C 0.26149(6) 0.34733(8) 0.58841(19)
C7_2 C 0.21296(6) 0.33836(8) 0.45232(19)
C8_2 C 0.16835(6) 0.34856(8) 0.52431(19)
H2_2 H 0.169782 0.358702 0.656631
C9_2 C 0.12161(6) 0.34457(8) 0.41101(19)
O8_2 O 0.29903(19) 0.48665(23) 0.1235(5)
C10_2 C 0.30872(16) 0.44791(20) 0.0911(3)
Mg3_2 Mg 0.02881(2) 0.38166(4) 0.35772(7)
Mg5_2 Mg 0.01952(3) 0.30453(4) 0.69106(7)
Mg6_2 Mg 0.31381(3) 0.36214(4) 0.97561(7)
Mg7_2 Mg 0.30453(2) 0.28500(4) 0.30894(7)
Mg8_2 Mg 0.38166(2) 0.35286(3) 0.64228(7)
O11_2 O 0.36990(4) 0.36267(7) 0.19000(14)
O2_2 O 0.07318(4) 0.30462(6) 0.90606(14)
O9_2 O 0.00722(6) 0.36990(7) 0.81000(14)
O10_2 O 0.32611(6) 0.29677(7) 0.85667(14)
O14_2 O 0.39193(4) 0.41474(7) 0.83919(14)
Mg1_2 Mg 0.95167(2) 0.31381(3) 0.02439(7)
O12_2 O 0.89811(4) 0.26015(7) 0.23939(14)
O16_2 O 0.97720(6) 0.39193(7) 0.16081(14)
O4_2 O 0.81238(13) 0.29903(19) 0.8765(5)
C5_2 C 0.86081(12) 0.30872(16) 0.9089(3)
O15_2 O 0.94140(4) 0.25193(7) 0.82748(14)
Mg7_3 Mg 0.71500(4) 0.01952(3) 0.30894(7)
Mg8_3 Mg 0.64714(3) 0.02881(2) 0.64228(7)
O11_3 O 0.63733(7) 0.00722(6) 0.19000(14)
O10_3 O 0.70323(7) 0.02934(4) 0.85667(14)
Mg1_3 Mg 0.68619(3) 0.63786(2) 0.02439(7)
O1_3 O 0.67389(6) 0.70323(4) 0.14333(14)
O3_3 O 0.68947(6) 0.94140(4) 0.17252(14)
C1_3 C 0.68066(8) 0.75250(6) 0.07826(19)
C2_3 C 0.67169(8) 0.79206(6) 0.21435(19)
C3_3 C 0.68189(8) 0.84687(6) 0.14236(19)
H1_3 H 0.692035 0.855586 0.010036
C4_3 C 0.67790(8) 0.88962(6) 0.25566(19)
O5_3 O 0.65944(6) 0.96344(4) 0.52334(14)
O6_3 O 0.63795(6) 0.89811(4) 0.76061(14)
O7_3 O 0.64386(6) 0.72527(4) 0.49415(14)
C6_3 C 0.65267(8) 0.91417(6) 0.58841(19)
C7_3 C 0.66164(8) 0.87461(6) 0.45232(19)
C8_3 C 0.65144(8) 0.81980(6) 0.52431(19)
H2_3 H 0.641298 0.811081 0.656631
C9_3 C 0.65543(8) 0.77705(6) 0.41101(19)
O8_3 O 0.51335(23) 0.81238(13) 0.1235(5)
C10_3 C 0.55209(20) 0.86081(12) 0.0911(3)
Mg3_3 Mg 0.61834(4) 0.64714(3) 0.35772(7)
Mg5_3 Mg 0.69547(4) 0.71500(2) 0.69106(7)
Mg6_3 Mg 0.63786(4) 0.95167(2) 0.97561(7)
O12_3 O 0.73985(7) 0.63795(6) 0.23939(14)
O16_3 O 0.60807(7) 0.58526(4) 0.16081(14)
O2_3 O 0.69538(6) 0.76856(4) 0.90606(14)
O4_3 O 0.70097(19) 0.51335(14) 0.8765(5)
C5_3 C 0.69128(16) 0.55209(11) 0.9089(3)
O9_3 O 0.63010(7) 0.63733(4) 0.81000(14)
O14_3 O 0.58526(7) 0.97720(6) 0.83919(14)
O15_3 O 0.74807(7) 0.68947(6) 0.82748(14)
O4_4 O 0.15332(14) 0.52095(13) 0.2098(5)
C5_4 C 0.11458(11) 0.47252(12) 0.2422(3)
O12_4 O 0.02871(6) 0.43523(4) 0.57273(14)
O6_4 O 0.76856(4) 0.07318(4) 0.09394(14)
O1_4 O 0.96344(4) 0.30399(4) 0.47666(14)
O3_4 O 0.72527(4) 0.08140(4) 0.50585(14)
C1_4 C 0.91417(6) 0.26149(6) 0.41159(19)
C2_4 C 0.87461(6) 0.21296(6) 0.54768(19)
C3_4 C 0.81980(6) 0.16835(6) 0.47569(19)
H1_4 H 0.811081 0.169782 0.343369
C4_4 C 0.77705(6) 0.12161(6) 0.58899(19)
C6_4 C 0.75250(6) 0.07184(6) 0.92174(19)
C7_4 C 0.79206(6) 0.12037(6) 0.78565(19)
C8_4 C 0.84687(6) 0.16498(6) 0.85764(19)
H2_4 H 0.855586 0.163551 0.989964
C9_4 C 0.88962(6) 0.21172(6) 0.74434(19)
O8_4 O 0.85429(13) 0.03430(19) 0.4568(5)
C10_4 C 0.80586(12) 0.02461(16) 0.4244(3)
O6_5 O 0.92682(4) 0.69538(6) 0.09394(14)
O1_5 O 0.69601(4) 0.65944(6) 0.47666(14)
O3_5 O 0.91860(4) 0.64386(6) 0.50585(14)
C1_5 C 0.73851(6) 0.65267(8) 0.41159(19)
C2_5 C 0.78704(6) 0.66164(8) 0.54768(19)
C3_5 C 0.83165(6) 0.65144(8) 0.47569(19)
H1_5 H 0.830218 0.641298 0.343369
C4_5 C 0.87839(6) 0.65543(8) 0.58899(19)
O4_5 O 0.47905(13) 0.63236(19) 0.2098(5)
C5_5 C 0.52748(12) 0.64205(16) 0.2422(3)
C6_5 C 0.92816(6) 0.68066(8) 0.92174(19)
C7_5 C 0.87963(6) 0.67169(8) 0.78565(19)
C8_5 C 0.83502(6) 0.68189(8) 0.85764(19)
H2_5 H 0.836449 0.692035 0.989964
C9_5 C 0.78828(6) 0.67790(8) 0.74434(19)
O8_5 O 0.96570(19) 0.81998(23) 0.4568(5)
C10_5 C 0.97539(16) 0.78124(20) 0.4244(3)
O12_5 O 0.56477(4) 0.59349(7) 0.57273(14)
O6_6 O 0.30462(6) 0.23144(4) 0.09394(14)
O1_6 O 0.34056(6) 0.03656(4) 0.47666(14)
O3_6 O 0.35614(6) 0.27473(4) 0.50585(14)
C1_6 C 0.34733(8) 0.08583(6) 0.41159(19)
C2_6 C 0.33836(8) 0.12539(6) 0.54768(19)
C3_6 C 0.34856(8) 0.18020(6) 0.47569(19)
H1_6 H 0.358702 0.188919 0.343369
C4_6 C 0.34457(8) 0.22295(6) 0.58899(19)
C6_6 C 0.31934(8) 0.24750(6) 0.92174(19)
C7_6 C 0.32831(8) 0.20794(6) 0.78565(19)
C8_6 C 0.31811(8) 0.15313(6) 0.85764(19)
H2_6 H 0.307965 0.144414 0.989964
C9_6 C 0.32210(8) 0.11038(6) 0.74434(19)
O8_6 O 0.18002(23) 0.14571(13) 0.4568(5)
C10_6 C 0.21876(20) 0.19414(12) 0.4244(3)
O4_6 O 0.36764(19) 0.84668(14) 0.2098(5)
C5_6 C 0.35795(16) 0.88542(11) 0.2422(3)
O12_6 O 0.40651(7) 0.97129(6) 0.57273(14)
O6_7 O 0.43523(4) 0.40651(4) 0.42727(14)
C6_7 C 0.41917(6) 0.40517(6) 0.25507(19)
C7_7 C 0.45873(6) 0.45370(6) 0.11898(19)
C8_7 C 0.51354(6) 0.49831(6) 0.19097(19)
H2_7 H 0.522253 0.496884 0.323297
C9_7 C 0.55629(6) 0.54505(6) 0.07767(19)
C1_7 C 0.58083(6) 0.59483(6) 0.74493(19)
C2_7 C 0.54127(6) 0.54630(6) 0.88102(19)
C3_7 C 0.48646(6) 0.50169(6) 0.80903(19)
H1_7 H 0.477747 0.503116 0.676703
C4_7 C 0.44371(6) 0.45495(6) 0.92233(19)
O4_7 O 0.81998(14) 0.85429(13) 0.5432(5)
C5_7 C 0.78124(11) 0.80586(12) 0.5756(3)
O8_7 O 0.52095(13) 0.36764(19) 0.7902(5)
C10_7 C 0.47252(12) 0.35795(16) 0.7578(3)
O6_8 O 0.59349(4) 0.02871(6) 0.42727(14)
C6_8 C 0.59483(6) 0.01399(8) 0.25507(19)
C7_8 C 0.54630(6) 0.00502(8) 0.11898(19)
C8_8 C 0.50169(6) 0.01522(8) 0.19097(19)
H2_8 H 0.503116 0.025368 0.323297
C9_8 C 0.45495(6) 0.01123(8) 0.07767(19)
O8_8 O 0.63236(19) 0.15332(23) 0.7902(5)
C10_8 C 0.64205(16) 0.11458(20) 0.7578(3)
C1_8 C 0.40517(6) 0.98601(8) 0.74493(19)
C2_8 C 0.45370(6) 0.99498(8) 0.88102(19)
C3_8 C 0.49831(6) 0.98478(8) 0.80903(19)
H1_8 H 0.496884 0.974632 0.676703
C4_8 C 0.54505(6) 0.98877(8) 0.92233(19)
O4_8 O 0.14571(13) 0.96570(19) 0.5432(5)
C5_8 C 0.19414(12) 0.97539(16) 0.5756(3)
C1_9 C 0.01399(8) 0.41917(6) 0.74493(19)
C2_9 C 0.00502(8) 0.45873(6) 0.88102(19)
C3_9 C 0.01522(8) 0.51354(6) 0.80903(19)
H1_9 H 0.025368 0.522253 0.676703
C4_9 C 0.01123(8) 0.55629(6) 0.92233(19)
O4_9 O 0.03430(19) 0.18002(14) 0.5432(5)
C5_9 C 0.02461(16) 0.21876(11) 0.5756(3)
O6_9 O 0.97129(6) 0.56477(4) 0.42727(14)
C6_9 C 0.98601(8) 0.58083(6) 0.25507(19)
C7_9 C 0.99498(8) 0.54127(6) 0.11898(19)
C8_9 C 0.98478(8) 0.48646(6) 0.19097(19)
H2_9 H 0.974632 0.477747 0.323297
C9_9 C 0.98877(8) 0.44371(6) 0.07767(19)
O8_9 O 0.84668(23) 0.47905(13) 0.7902(5)
C10_9 C 0.88542(20) 0.52748(12) 0.7578(3)
loop_
_geom_bond_atom_site_label_1
_geom_bond_atom_site_label_2
_geom_bond_site_symmetry_1
_geom_bond_site_symmetry_2
O12 Mg1 1_555 1_555
O16 Mg1 1_555 1_555
O4 C5 1_555 1_555
O1 C1 1_555 1_555
O3 C4 1_555 1_555
C1 C2 1_555 1_555
C2 C3 1_555 1_555
C3 H1 1_555 1_555
C4 C3 1_555 1_555
O5 C6 1_555 1_555
O6 C6 1_555 1_555
O7 C9 1_555 1_555
C6 C7 1_555 1_555
C7 C4 1_555 1_555
C8 C7 1_555 1_555
H2 C8 1_555 1_555
C9 C2 1_555 1_555
O8 C10 1_555 1_555
Mg3 O1 1_555 1_555
Mg5 O7 1_555 1_555
Mg6 O6 1_555 1_555
O7 Mg3 1_555 1_555
C8 C9 1_555 1_555
Mg5 O2 1_555 1_555
O14 Mg6 1_555 1_555
Mg5 O9 1_555 1_555
Mg7 O11 1_555 1_555
O1_2 C1_2 1_555 1_555
O3_2 C4_2 1_555 1_555
C1_2 C2_2 1_555 1_555
C2_2 C3_2 1_555 1_555
C3_2 H1_2 1_555 1_555
C4_2 C3_2 1_555 1_555
O5_2 C6_2 1_555 1_555
O6_2 C6_2 1_555 1_555
O7_2 C9_2 1_555 1_555
C6_2 C7_2 1_555 1_555
C7_2 C4_2 1_555 1_555
C8_2 C7_2 1_555 1_555
H2_2 C8_2 1_555 1_555
C9_2 C2_2 1_555 1_555
O8_2 C10_2 1_555 1_555
Mg3_2 O1_2 1_555 1_555
Mg5_2 O7_2 1_555 1_555
Mg6_2 O6_2 1_555 1_555
Mg7_2 O3_2 1_555 1_555
Mg8_2 O5_2 1_555 1_555
O5_2 Mg7_2 1_555 1_555
O7_2 Mg3_2 1_555 1_555
C8_2 C9_2 1_555 1_555
Mg7_2 O11_2 1_555 1_555
Mg5_2 O2_2 1_555 1_555
O10_2 Mg6_2 1_555 1_555
O14_2 Mg6_2 1_555 1_555
Mg5_2 O9_2 1_555 1_555
O12_2 Mg1_2 1_555 1_555
O16_2 Mg1_2 1_555 1_555
O4_2 C5_2 1_555 1_555
Mg7_3 O11_3 1_555 1_555
Mg1_3 O1_3 1_555 1_555
O1_3 C1_3 1_555 1_555
O3_3 C4_3 1_555 1_555
C1_3 C2_3 1_555 1_555
C2_3 C3_3 1_555 1_555
C3_3 H1_3 1_555 1_555
C4_3 C3_3 1_555 1_555
O5_3 C6_3 1_555 1_555
O6_3 C6_3 1_555 1_555
O7_3 C9_3 1_555 1_555
C6_3 C7_3 1_555 1_555
C7_3 C4_3 1_555 1_555
C8_3 C7_3 1_555 1_555
H2_3 C8_3 1_555 1_555
C9_3 C2_3 1_555 1_555
O8_3 C10_3 1_555 1_555
Mg3_3 O1_3 1_555 1_555
Mg5_3 O7_3 1_555 1_555
Mg6_3 O6_3 1_555 1_555
O12_3 Mg1_3 1_555 1_555
O16_3 Mg1_3 1_555 1_555
O7_3 Mg3_3 1_555 1_555
C8_3 C9_3 1_555 1_555
Mg3_3 O16_3 1_555 1_555
O4_3 C5_3 1_555 1_555
Mg5_3 O2_3 1_555 1_555
O14_3 Mg6_3 1_555 1_555
Mg5_3 O9_3 1_555 1_555
Mg5_3 O15_3 1_555 1_555
O4_4 C5_4 1_555 1_555
C5_4 Mg3_2 1_555 1_555
O12_4 Mg3_2 1_555 1_555
Mg7_3 O6_4 1_555 1_555
O1_4 C1_4 1_555 1_555
O12_2 C1_4 1_555 1_555
O3_4 C4_4 1_555 1_555
C1_4 C2_4 1_555 1_555
C2_4 C3_4 1_555 1_555
C3_4 H1_4 1_555 1_555
C4_4 C3_4 1_555 1_555
O10_3 C6_4 1_555 1_555
O15_2 C9_4 1_555 1_555
C6_4 C7_4 1_555 1_555
C7_4 C4_4 1_555 1_555
C8_4 C7_4 1_555 1_555
H2_4 C8_4 1_555 1_555
C9_4 C2_4 1_555 1_555
Mg7_3 O3_4 1_555 1_555
O8_4 C10_4 1_555 1_555
C10_4 Mg7_3 1_555 1_555
Mg8_3 O3_4 1_555 1_555
O10_3 Mg8_3 1_555 1_555
C8_4 C9_4 1_555 1_555
Mg7 O6_5 1_555 1_555
Mg3_3 O1_5 1_555 1_555
O1_5 C1_5 1_555 1_555
O12_3 C1_5 1_555 1_555
O3_5 C4_5 1_555 1_555
C1_5 C2_5 1_555 1_555
C2_5 C3_5 1_555 1_555
C3_5 H1_5 1_555 1_555
C4_5 C3_5 1_555 1_555
O4_5 C5_5 1_555 1_555
C5_5 Mg3_3 1_555 1_555
O10 C6_5 1_555 1_555
O15_3 C9_5 1_555 1_555
C6_5 C7_5 1_555 1_555
C7_5 C4_5 1_555 1_555
C8_5 C7_5 1_555 1_555
H2_5 C8_5 1_555 1_555
C9_5 C2_5 1_555 1_555
Mg7 O3_5 1_555 1_555
O8_5 C10_5 1_555 1_555
C10_5 Mg7 1_555 1_555
Mg5_3 O1_5 1_555 1_555
Mg8 O3_5 1_555 1_555
O12_5 Mg3_3 1_555 1_555
O10 Mg8 1_555 1_555
C8_5 C9_5 1_555 1_555
Mg7_2 O6_6 1_555 1_555
O1_6 C1_6 1_555 1_555
O12 C1_6 1_555 1_555
O3_6 C4_6 1_555 1_555
C1_6 C2_6 1_555 1_555
C2_6 C3_6 1_555 1_555
C3_6 H1_6 1_555 1_555
C4_6 C3_6 1_555 1_555
O10_2 C6_6 1_555 1_555
O15 C9_6 1_555 1_555
C6_6 C7_6 1_555 1_555
C7_6 C4_6 1_555 1_555
C8_6 C7_6 1_555 1_555
H2_6 C8_6 1_555 1_555
C9_6 C2_6 1_555 1_555
Mg7_2 O3_6 1_555 1_555
O8_6 C10_6 1_555 1_555
C10_6 Mg7_2 1_555 1_555
Mg8_2 O3_6 1_555 1_555
O10_2 Mg8_2 1_555 1_555
C8_6 C9_6 1_555 1_555
O4_6 C5_6 1_555 1_555
C5_6 Mg3 1_555 1_555
O12_6 Mg3 1_555 1_555
O11_2 C6_7 1_555 1_555
O6_7 C6_7 1_555 1_555
O16_3 C9_7 1_555 1_555
C6_7 C7_7 1_555 1_555
C8_7 C7_7 1_555 1_555
H2_7 C8_7 1_555 1_555
Mg8_2 O6_7 1_555 1_555
C8_7 C9_7 1_555 1_555
O9_3 C1_7 1_555 1_555
O12_5 C1_7 1_555 1_555
O14_2 C4_7 1_555 1_555
C1_7 C2_7 1_555 1_555
C2_7 C3_7 1_555 1_555
C3_7 H1_7 1_555 1_555
C4_7 C3_7 1_555 1_555
O4_7 C5_7 1_555 1_555
C5_7 Mg5_3 1_555 1_555
Mg8_2 O14_2 1_555 1_555
O8_7 C10_7 1_555 1_555
C10_7 Mg8_2 1_555 1_555
O11_3 C6_8 1_555 1_555
O6_8 C6_8 1_555 1_555
O16 C9_8 1_555 1_555
C6_8 C7_8 1_555 1_555
C8_8 C7_8 1_555 1_555
H2_8 C8_8 1_555 1_555
Mg8_3 O6_8 1_555 1_555
C8_8 C9_8 1_555 1_555
O8_8 C10_8 1_555 1_555
C10_8 Mg8_3 1_555 1_555
O9 C1_8 1_555 1_555
O12_6 C1_8 1_555 1_555
O14_3 C4_8 1_555 1_555
C1_8 C2_8 1_555 1_555
C2_8 C3_8 1_555 1_555
C3_8 H1_8 1_555 1_555
C4_8 C3_8 1_555 1_555
O4_8 C5_8 1_555 1_555
C5_8 Mg5 1_555 1_555
O9_2 C1_9 1_555 1_555
O12_4 C1_9 1_555 1_555
O14 C4_9 1_555 1_555
C1_9 C2_9 1_555 1_555
C2_9 C3_9 1_555 1_555
C3_9 H1_9 1_555 1_555
C4_9 C3_9 1_555 1_555
O4_9 C5_9 1_555 1_555
C5_9 Mg5_2 1_555 1_555
O11 C6_9 1_555 1_555
O6_9 C6_9 1_555 1_555
O16_2 C9_9 1_555 1_555
C6_9 C7_9 1_555 1_555
C8_9 C7_9 1_555 1_555
H2_9 C8_9 1_555 1_555
Mg8 O6_9 1_555 1_555
C8_9 C9_9 1_555 1_555
O8_9 C10_9 1_555 1_555
C10_9 Mg8 1_555 1_555

#END
