
###############################################################################
#
# This file contains modified crystal structure data generated from the
# MOF subset of the Cambridge Structural Database (CSD) v543 
# hosted by the Cambridge Crystallographic Data Centre (CCDC).
#
# This work is licensed under the Creative Commons
# Attribution-NonCommercial-ShareAlike 4.0 International License.
# To view a copy of this license, visit
# http://creativecommons.org/licenses/by-nc-sa/4.0/
# or send a letter to
# Creative Commons, PO Box 1866, Mountain View, CA 94042, USA.
#
# CIF created using the CSD Python API on 29 September 2022
# The structure has been converted into the P1 space group
# The structure has a 3D framework
# The original CSD entry ZOHPIY is in the rhombohedral crystal system
# The framework has been calculated to contain at least 10.0% void space
# The void calculation uses a probe of radius 1.32A, grid spacing 0.4
#
###############################################################################

data_ZOHPIY
_chemical_formula_moiety         '(C90 H90 Mg13 O66)n'
_symmetry_cell_setting           triclinic
_symmetry_space_group_name_H-M   'P 1'
_symmetry_Int_Tables_number      1
_space_group_name_Hall           'P 1'
loop_
_symmetry_equiv_pos_site_id
_symmetry_equiv_pos_as_xyz
1 x,y,z
_cell_length_a                   26.023(4)
_cell_length_b                   26.023(4)
_cell_length_c                   6.6525(13)
_cell_angle_alpha                90
_cell_angle_beta                 90
_cell_angle_gamma                120
_cell_volume                     3901.49
loop_
_atom_site_label
_atom_site_type_symbol
_atom_site_fract_x
_atom_site_fract_y
_atom_site_fract_z
Mg1 Mg 0.29743(2) 0.28049(2) 0.32263(7)
O1 O 0.36934(4) 0.36281(4) 0.19897(14)
O2 O 0.43867(4) 0.40311(4) 0.43429(14)
C1 C 0.41997(5) 0.40319(5) 0.25928(19)
C2 C 0.45893(5) 0.45241(5) 0.11952(19)
C3 C 0.51434(5) 0.49507(5) 0.19463(18)
H1 H 0.523768 0.491279 0.329779
O4 O 0.22600(4) 0.21144(4) 0.47317(15)
C5 C 0.20415(7) 0.14898(6) 0.4538(2)
H2 H 0.220397 0.141510 0.331507
H3 H 0.160741 0.127844 0.445654
H4 H 0.216400 0.134902 0.571009
H5 H 0.2132(12) 0.2205(11) 0.581(3)
O7 O 0.60838(4) 0.58158(4) 0.17156(13)
C9 C 0.55648(5) 0.54286(5) 0.08180(18)
Mg4 Mg 0.38618(2) 0.35027(3) 0.65596(7)
Mg6 Mg 0.68361(3) 0.63076(2) 0.01070(7)
Mg8 Mg 0.61382(2) 0.64973(3) 0.34404(7)
O9 O 0.30386(4) 0.33986(6) 0.53230(14)
O11 O 0.29777(6) 0.22800(4) 0.10096(14)
O13 O 0.24825(4) 0.30653(6) 0.16177(13)
O14 O 0.36013(6) 0.27505(4) 0.49511(13)
O3 O 0.39162(4) 0.41842(4) 0.82844(13)
C4 C 0.44352(5) 0.45714(5) 0.91820(18)
O5 O 0.63066(4) 0.63719(4) 0.80103(14)
O6 O 0.56133(4) 0.59689(4) 0.56571(14)
C6 C 0.58003(5) 0.59681(5) 0.74072(19)
C7 C 0.54107(5) 0.54759(5) 0.88048(19)
C8 C 0.48566(5) 0.50493(5) 0.80537(18)
H6 H 0.476232 0.508721 0.670221
Mg2 Mg 0.70257(2) 0.71951(2) 0.67737(7)
O8 O 0.77400(4) 0.78856(4) 0.52683(15)
C10 C 0.79585(7) 0.85102(6) 0.5462(2)
H7 H 0.779603 0.858490 0.668493
H8 H 0.839259 0.872156 0.554346
H9 H 0.783600 0.865098 0.428991
H10 H 0.7868(12) 0.7795(11) 0.419(3)
Mg5 Mg 0.31639(3) 0.36924(2) 0.98930(7)
O10 O 0.69614(4) 0.66014(6) 0.46770(14)
O12 O 0.70223(6) 0.77200(4) 0.89904(14)
O15 O 0.63987(6) 0.72495(4) 0.50489(13)
O16 O 0.75175(4) 0.69347(6) 0.83823(13)
Mg1_2 Mg 0.71951(2) 0.01694(3) 0.32263(7)
O1_2 O 0.63719(4) 0.00653(6) 0.19897(14)
O2_2 O 0.59689(4) 0.03556(6) 0.43429(14)
C1_2 C 0.59681(5) 0.01678(7) 0.25928(19)
C2_2 C 0.54759(5) 0.00652(7) 0.11952(19)
C3_2 C 0.50493(5) 0.01927(7) 0.19463(18)
H1_2 H 0.508721 0.032489 0.329779
O4_2 O 0.78856(4) 0.01456(6) 0.47317(15)
C5_2 C 0.85102(6) 0.05517(9) 0.4538(2)
H2_2 H 0.858490 0.078887 0.331507
H3_2 H 0.872156 0.032897 0.445654
H4_2 H 0.865098 0.081498 0.571009
O7_2 O 0.41842(4) 0.02680(6) 0.17156(13)
C9_2 C 0.45714(5) 0.01362(7) 0.08180(18)
Mg4_2 Mg 0.64973(3) 0.03590(4) 0.65596(7)
Mg6_2 Mg 0.36924(2) 0.05284(4) 0.01070(7)
O11_2 O 0.77200(4) 0.06978(7) 0.10096(14)
O14_2 O 0.72495(4) 0.08509(7) 0.49511(13)
H10_2 H 0.2205(11) 0.0073(16) 0.419(3)
O10_2 O 0.33986(6) 0.03601(7) 0.46770(14)
O16_2 O 0.30653(6) 0.05829(7) 0.83823(13)
H5_2 H 0.7795(11) 0.9927(16) 0.581(3)
Mg8_2 Mg 0.35027(3) 0.96410(4) 0.34404(7)
O9_2 O 0.66014(6) 0.96399(7) 0.53230(14)
O13_2 O 0.69347(6) 0.94171(7) 0.16177(13)
O3_2 O 0.58158(4) 0.97320(6) 0.82844(13)
C4_2 C 0.54286(5) 0.98638(7) 0.91820(18)
O5_2 O 0.36281(4) 0.99347(6) 0.80103(14)
O6_2 O 0.40311(4) 0.96444(6) 0.56571(14)
C6_2 C 0.40319(5) 0.98322(7) 0.74072(19)
C7_2 C 0.45241(5) 0.99348(7) 0.88048(19)
C8_2 C 0.49507(5) 0.98073(7) 0.80537(18)
H6_2 H 0.491279 0.967511 0.670221
Mg2_2 Mg 0.28049(2) 0.98306(3) 0.67737(7)
O8_2 O 0.21144(4) 0.98544(6) 0.52683(15)
C10_2 C 0.14898(6) 0.94483(9) 0.5462(2)
H7_2 H 0.141510 0.921113 0.668493
H8_2 H 0.127844 0.967103 0.554346
H9_2 H 0.134902 0.918502 0.428991
Mg5_2 Mg 0.63076(2) 0.94716(4) 0.98930(7)
O12_2 O 0.22800(4) 0.93022(7) 0.89904(14)
O15_2 O 0.27505(4) 0.91491(7) 0.50489(13)
H5_3 H 0.0073(16) 0.7868(12) 0.581(3)
Mg8_3 Mg 0.03590(4) 0.38618(2) 0.34404(7)
O9_3 O 0.03601(7) 0.69614(4) 0.53230(14)
O13_3 O 0.05829(7) 0.75175(4) 0.16177(13)
O3_3 O 0.02680(6) 0.60838(4) 0.82844(13)
C4_3 C 0.01362(7) 0.55648(5) 0.91820(18)
O5_3 O 0.00653(6) 0.36934(4) 0.80103(14)
O6_3 O 0.03556(6) 0.43867(4) 0.56571(14)
C6_3 C 0.01678(7) 0.41997(5) 0.74072(19)
C7_3 C 0.00652(7) 0.45893(5) 0.88048(19)
C8_3 C 0.01927(7) 0.51434(5) 0.80537(18)
H6_3 H 0.032489 0.523768 0.670221
Mg2_3 Mg 0.01694(3) 0.29743(2) 0.67737(7)
O8_3 O 0.01456(6) 0.22600(4) 0.52683(15)
C10_3 C 0.05517(9) 0.20415(7) 0.5462(2)
H7_3 H 0.078887 0.220397 0.668493
H8_3 H 0.032897 0.160741 0.554346
H9_3 H 0.081498 0.216400 0.428991
Mg5_3 Mg 0.05284(4) 0.68361(3) 0.98930(7)
O12_3 O 0.06978(7) 0.29777(6) 0.89904(14)
O15_3 O 0.08509(7) 0.36013(6) 0.50489(13)
Mg1_3 Mg 0.98306(3) 0.70257(2) 0.32263(7)
O1_3 O 0.99347(6) 0.63066(4) 0.19897(14)
O2_3 O 0.96444(6) 0.56133(4) 0.43429(14)
C1_3 C 0.98322(7) 0.58003(5) 0.25928(19)
C2_3 C 0.99348(7) 0.54107(5) 0.11952(19)
C3_3 C 0.98073(7) 0.48566(5) 0.19463(18)
H1_3 H 0.967511 0.476232 0.329779
O4_3 O 0.98544(6) 0.77400(4) 0.47317(15)
C5_3 C 0.94483(9) 0.79585(7) 0.4538(2)
H2_3 H 0.921113 0.779603 0.331507
H3_3 H 0.967103 0.839259 0.445654
H4_3 H 0.918502 0.783600 0.571009
O7_3 O 0.97320(6) 0.39162(4) 0.17156(13)
C9_3 C 0.98638(7) 0.44352(5) 0.08180(18)
Mg4_3 Mg 0.96410(4) 0.61382(2) 0.65596(7)
Mg6_3 Mg 0.94716(4) 0.31639(3) 0.01070(7)
O11_3 O 0.93022(7) 0.70223(6) 0.10096(14)
O14_3 O 0.91491(7) 0.63987(6) 0.49511(13)
H10_3 H 0.9927(16) 0.2132(12) 0.419(3)
O10_3 O 0.96399(7) 0.30386(4) 0.46770(14)
O16_3 O 0.94171(7) 0.24825(4) 0.83823(13)
H7_4 H 0.446270 0.191823 0.001826
O12_4 O 0.36889(6) 0.10534(4) 0.23238(14)
O8_4 O 0.44067(4) 0.12189(4) 0.86016(15)
C10_4 C 0.46252(7) 0.18435(6) 0.8795(2)
H8_4 H 0.505926 0.205489 0.887679
H9_4 H 0.450267 0.198431 0.762324
H10_4 H 0.4535(12) 0.1128(11) 0.752(3)
O2_4 O 0.10534(4) 0.73644(4) 0.76762(14)
C1_4 C 0.08664(5) 0.73652(5) 0.59261(19)
C2_4 C 0.12560(5) 0.78574(5) 0.45285(19)
C3_4 C 0.18101(5) 0.82840(5) 0.52796(18)
H1_4 H 0.190435 0.824612 0.663112
C4_4 C 0.11019(5) 0.79047(5) 0.25153(18)
O5_4 O 0.29733(4) 0.97052(4) 0.13436(14)
C6_4 C 0.24670(5) 0.93014(5) 0.07405(19)
C7_4 C 0.20774(5) 0.88092(5) 0.21381(19)
C8_4 C 0.15233(5) 0.83826(5) 0.13870(18)
H6_4 H 0.142899 0.842054 0.003554
C9_4 C 0.22315(5) 0.87619(5) 0.41513(18)
O4_4 O 0.89267(4) 0.54477(4) 0.80650(15)
C5_4 C 0.87082(7) 0.48231(6) 0.7871(2)
H2_4 H 0.887064 0.474843 0.664840
H3_4 H 0.827408 0.461177 0.778987
H4_4 H 0.883067 0.468235 0.904342
H5_4 H 0.8799(12) 0.5538(11) 0.914(3)
O9_4 O 0.97052(4) 0.67320(6) 0.86564(14)
O2_5 O 0.26356(4) 0.36889(6) 0.76762(14)
C1_5 C 0.26348(5) 0.35011(7) 0.59261(19)
C2_5 C 0.21426(5) 0.33985(7) 0.45285(19)
C3_5 C 0.17160(5) 0.35260(7) 0.52796(18)
H1_5 H 0.175388 0.365822 0.663112
C4_5 C 0.20953(5) 0.31971(7) 0.25153(18)
O4_5 O 0.45523(4) 0.34789(6) 0.80650(15)
C5_5 C 0.51769(6) 0.38850(9) 0.7871(2)
H2_5 H 0.525157 0.412220 0.664840
H3_5 H 0.538823 0.366230 0.778987
H4_5 H 0.531765 0.414831 0.904342
H5_5 H 0.4462(11) 0.3260(16) 0.914(3)
O5_5 O 0.02948(4) 0.32680(6) 0.13436(14)
C6_5 C 0.06986(5) 0.31655(7) 0.07405(19)
C7_5 C 0.11908(5) 0.32681(7) 0.21381(19)
C8_5 C 0.16174(5) 0.31406(7) 0.13870(18)
H6_5 H 0.157946 0.300844 0.003554
C9_5 C 0.12381(5) 0.34695(7) 0.41513(18)
O9_5 O 0.32680(6) 0.29733(7) 0.86564(14)
H7_5 H 0.808177 0.254446 0.001826
O12_5 O 0.89466(4) 0.26356(7) 0.23238(14)
O8_5 O 0.87811(4) 0.31877(6) 0.86016(15)
C10_5 C 0.81565(6) 0.27816(9) 0.8795(2)
H8_5 H 0.794511 0.300436 0.887679
H9_5 H 0.801569 0.251835 0.762324
H10_5 H 0.8872(11) 0.3406(16) 0.752(3)
O4_6 O 0.65211(6) 0.10733(4) 0.80650(15)
C5_6 C 0.61150(9) 0.12918(7) 0.7871(2)
H2_6 H 0.587780 0.112936 0.664840
H3_6 H 0.633770 0.172592 0.778987
H4_6 H 0.585169 0.116933 0.904342
H5_6 H 0.6740(16) 0.1201(12) 0.914(3)
O9_6 O 0.70267(7) 0.02948(4) 0.86564(14)
O2_6 O 0.63111(6) 0.89466(4) 0.76762(14)
C1_6 C 0.64989(7) 0.91336(5) 0.59261(19)
C2_6 C 0.66015(7) 0.87440(5) 0.45285(19)
C3_6 C 0.64740(7) 0.81899(5) 0.52796(18)
H1_6 H 0.634178 0.809565 0.663112
C4_6 C 0.68029(7) 0.88981(5) 0.25153(18)
O5_6 O 0.67320(6) 0.70267(4) 0.13436(14)
C6_6 C 0.68345(7) 0.75330(5) 0.07405(19)
C7_6 C 0.67319(7) 0.79226(5) 0.21381(19)
C8_6 C 0.68594(7) 0.84767(5) 0.13870(18)
H6_6 H 0.699156 0.857101 0.003554
C9_6 C 0.65305(7) 0.77685(5) 0.41513(18)
H7_6 H 0.745554 0.553730 0.001826
O12_6 O 0.73644(7) 0.63111(6) 0.23238(14)
O8_6 O 0.68123(6) 0.55933(4) 0.86016(15)
C10_6 C 0.72184(9) 0.53748(7) 0.8795(2)
H8_6 H 0.699564 0.494074 0.887679
H9_6 H 0.748165 0.549733 0.762324
H10_6 H 0.6594(16) 0.5465(12) 0.752(3)
O8_7 O 0.10733(4) 0.45523(4) 0.19350(15)
C10_7 C 0.12918(7) 0.51769(6) 0.2129(2)
H7_7 H 0.112936 0.525157 0.335160
H8_7 H 0.172592 0.538823 0.221013
H9_7 H 0.116933 0.531765 0.095658
H10_7 H 0.1201(12) 0.4462(11) 0.086(3)
C1_7 C 0.75330(5) 0.06986(5) 0.92595(19)
C2_7 C 0.79226(5) 0.11908(5) 0.78619(19)
C3_7 C 0.84767(5) 0.16174(5) 0.86130(18)
H1_7 H 0.857101 0.157946 0.996446
C4_7 C 0.77685(5) 0.12381(5) 0.58487(18)
C6_7 C 0.91336(5) 0.26348(5) 0.40739(19)
C7_7 C 0.87440(5) 0.21426(5) 0.54715(19)
C8_7 C 0.81899(5) 0.17160(5) 0.47204(18)
H6_7 H 0.809565 0.175388 0.336888
C9_7 C 0.88981(5) 0.20953(5) 0.74847(18)
O4_7 O 0.55933(4) 0.87811(4) 0.13984(15)
C5_7 C 0.53748(7) 0.81565(6) 0.1205(2)
H3_7 H 0.494074 0.794511 0.112321
H4_7 H 0.549733 0.801569 0.237676
H5_7 H 0.5465(12) 0.8872(11) 0.248(3)
H2_7 H 0.553730 0.808177 0.998174
O4_8 O 0.12189(4) 0.68123(6) 0.13984(15)
C5_8 C 0.18435(6) 0.72184(9) 0.1205(2)
H3_8 H 0.205489 0.699564 0.112321
H4_8 H 0.198431 0.748165 0.237676
H5_8 H 0.1128(11) 0.6594(16) 0.248(3)
H2_8 H 0.191823 0.745554 0.998174
C1_8 C 0.93014(5) 0.68345(7) 0.92595(19)
C2_8 C 0.88092(5) 0.67319(7) 0.78619(19)
C3_8 C 0.83826(5) 0.68594(7) 0.86130(18)
H1_8 H 0.842054 0.699156 0.996446
C4_8 C 0.87619(5) 0.65305(7) 0.58487(18)
C6_8 C 0.73652(5) 0.64989(7) 0.40739(19)
C7_8 C 0.78574(5) 0.66015(7) 0.54715(19)
C8_8 C 0.82840(5) 0.64740(7) 0.47204(18)
H6_8 H 0.824612 0.634178 0.336888
C9_8 C 0.79047(5) 0.68029(7) 0.74847(18)
O8_8 O 0.54477(4) 0.65211(6) 0.19350(15)
C10_8 C 0.48231(6) 0.61150(9) 0.2129(2)
H7_8 H 0.474843 0.587780 0.335160
H8_8 H 0.461177 0.633770 0.221013
H9_8 H 0.468235 0.585169 0.095658
H10_8 H 0.5538(11) 0.6740(16) 0.086(3)
O4_9 O 0.31877(6) 0.44067(4) 0.13984(15)
C5_9 C 0.27816(9) 0.46252(7) 0.1205(2)
H3_9 H 0.300436 0.505926 0.112321
H4_9 H 0.251835 0.450267 0.237676
H5_9 H 0.3406(16) 0.4535(12) 0.248(3)
C1_9 C 0.31655(7) 0.24670(5) 0.92595(19)
C2_9 C 0.32681(7) 0.20774(5) 0.78619(19)
C3_9 C 0.31406(7) 0.15233(5) 0.86130(18)
H1_9 H 0.300844 0.142899 0.996446
C4_9 C 0.34695(7) 0.22315(5) 0.58487(18)
H2_9 H 0.254446 0.446270 0.998174
C6_9 C 0.35011(7) 0.08664(5) 0.40739(19)
C7_9 C 0.33985(7) 0.12560(5) 0.54715(19)
C8_9 C 0.35260(7) 0.18101(5) 0.47204(18)
H6_9 H 0.365822 0.190435 0.336888
C9_9 C 0.31971(7) 0.11019(5) 0.74847(18)
O8_9 O 0.34789(6) 0.89267(4) 0.19350(15)
C10_9 C 0.38850(9) 0.87082(7) 0.2129(2)
H7_9 H 0.412220 0.887064 0.335160
H8_9 H 0.366230 0.827408 0.221013
H9_9 H 0.414831 0.883067 0.095658
H10_9 H 0.3260(16) 0.8799(12) 0.086(3)
loop_
_geom_bond_atom_site_label_1
_geom_bond_atom_site_label_2
_geom_bond_site_symmetry_1
_geom_bond_site_symmetry_2
Mg1 O1 1_555 1_555
O1 C1 1_555 1_555
O2 C1 1_555 1_555
C1 C2 1_555 1_555
C2 C3 1_555 1_555
C3 H1 1_555 1_555
O4 Mg1 1_555 1_555
C5 O4 1_555 1_555
H2 C5 1_555 1_555
H3 C5 1_555 1_555
H4 C5 1_555 1_555
H5 O4 1_555 1_555
O7 C9 1_555 1_555
C9 C3 1_555 1_555
Mg4 O2 1_555 1_555
Mg8 O7 1_555 1_555
O9 Mg1 1_555 1_555
O11 Mg1 1_555 1_555
O13 Mg1 1_555 1_555
O14 Mg1 1_555 1_555
O7 Mg6 1_555 1_555
Mg4 O9 1_555 1_555
Mg4 O14 1_555 1_555
O3 C4 1_555 1_555
O5 C6 1_555 1_555
O6 C6 1_555 1_555
C6 C7 1_555 1_555
C7 C8 1_555 1_555
C8 C4 1_555 1_555
H6 C8 1_555 1_555
Mg2 O5 1_555 1_555
O8 Mg2 1_555 1_555
C10 O8 1_555 1_555
H7 C10 1_555 1_555
H8 C10 1_555 1_555
H9 C10 1_555 1_555
H10 O8 1_555 1_555
Mg4 O3 1_555 1_555
Mg8 O6 1_555 1_555
O10 Mg2 1_555 1_555
O12 Mg2 1_555 1_555
O15 Mg2 1_555 1_555
O16 Mg2 1_555 1_555
O3 Mg5 1_555 1_555
Mg8 O10 1_555 1_555
Mg8 O15 1_555 1_555
Mg1_2 O1_2 1_555 1_555
O1_2 C1_2 1_555 1_555
O2_2 C1_2 1_555 1_555
C1_2 C2_2 1_555 1_555
C2_2 C3_2 1_555 1_555
C3_2 H1_2 1_555 1_555
O4_2 Mg1_2 1_555 1_555
C5_2 O4_2 1_555 1_555
H2_2 C5_2 1_555 1_555
H3_2 C5_2 1_555 1_555
H4_2 C5_2 1_555 1_555
O7_2 C9_2 1_555 1_555
C9_2 C3_2 1_555 1_555
Mg4_2 O2_2 1_555 1_555
O11_2 Mg1_2 1_555 1_555
O14_2 Mg1_2 1_555 1_555
O7_2 Mg6_2 1_555 1_555
Mg4_2 O14_2 1_555 1_555
O3_2 C4_2 1_555 1_555
O5_2 C6_2 1_555 1_555
O6_2 C6_2 1_555 1_555
C6_2 C7_2 1_555 1_555
C7_2 C8_2 1_555 1_555
C8_2 C4_2 1_555 1_555
H6_2 C8_2 1_555 1_555
Mg2_2 O5_2 1_555 1_555
O8_2 Mg2_2 1_555 1_555
C10_2 O8_2 1_555 1_555
H7_2 C10_2 1_555 1_555
H8_2 C10_2 1_555 1_555
H9_2 C10_2 1_555 1_555
Mg8_2 O6_2 1_555 1_555
O12_2 Mg2_2 1_555 1_555
O15_2 Mg2_2 1_555 1_555
O3_2 Mg5_2 1_555 1_555
Mg8_2 O15_2 1_555 1_555
O3_3 C4_3 1_555 1_555
O5_3 C6_3 1_555 1_555
O6_3 C6_3 1_555 1_555
C6_3 C7_3 1_555 1_555
C7_3 C8_3 1_555 1_555
C8_3 C4_3 1_555 1_555
H6_3 C8_3 1_555 1_555
Mg2_3 O5_3 1_555 1_555
O8_3 Mg2_3 1_555 1_555
C10_3 O8_3 1_555 1_555
H7_3 C10_3 1_555 1_555
H8_3 C10_3 1_555 1_555
H9_3 C10_3 1_555 1_555
Mg8_3 O6_3 1_555 1_555
O12_3 Mg2_3 1_555 1_555
O15_3 Mg2_3 1_555 1_555
O3_3 Mg5_3 1_555 1_555
Mg8_3 O15_3 1_555 1_555
Mg1_3 O1_3 1_555 1_555
O1_3 C1_3 1_555 1_555
O2_3 C1_3 1_555 1_555
C1_3 C2_3 1_555 1_555
C2_3 C3_3 1_555 1_555
C3_3 H1_3 1_555 1_555
O4_3 Mg1_3 1_555 1_555
C5_3 O4_3 1_555 1_555
H2_3 C5_3 1_555 1_555
H3_3 C5_3 1_555 1_555
H4_3 C5_3 1_555 1_555
O7_3 C9_3 1_555 1_555
C9_3 C3_3 1_555 1_555
Mg4_3 O2_3 1_555 1_555
O11_3 Mg1_3 1_555 1_555
O14_3 Mg1_3 1_555 1_555
O7_3 Mg6_3 1_555 1_555
Mg4_3 O14_3 1_555 1_555
O12_4 Mg6_2 1_555 1_555
C10_4 O8_4 1_555 1_555
H8_4 C10_4 1_555 1_555
H9_4 C10_4 1_555 1_555
H10_4 O8_4 1_555 1_555
O9_3 C1_4 1_555 1_555
O2_4 C1_4 1_555 1_555
O13_3 C4_4 1_555 1_555
C1_4 C2_4 1_555 1_555
C2_4 C3_4 1_555 1_555
C3_4 H1_4 1_555 1_555
C4_4 C2_4 1_555 1_555
O5_4 C6_4 1_555 1_555
O15_2 C9_4 1_555 1_555
C6_4 C7_4 1_555 1_555
C7_4 C8_4 1_555 1_555
C8_4 C4_4 1_555 1_555
H6_4 C8_4 1_555 1_555
C9_4 C3_4 1_555 1_555
Mg5_3 O2_4 1_555 1_555
Mg8_2 O5_4 1_555 1_555
C7_4 C9_4 1_555 1_555
O4_4 Mg4_3 1_555 1_555
C5_4 O4_4 1_555 1_555
H2_4 C5_4 1_555 1_555
H3_4 C5_4 1_555 1_555
H4_4 C5_4 1_555 1_555
H5_4 O4_4 1_555 1_555
O9_4 Mg4_3 1_555 1_555
O9 C1_5 1_555 1_555
O2_5 C1_5 1_555 1_555
O13 C4_5 1_555 1_555
C1_5 C2_5 1_555 1_555
C2_5 C3_5 1_555 1_555
C3_5 H1_5 1_555 1_555
C4_5 C2_5 1_555 1_555
O4_5 Mg4 1_555 1_555
C5_5 O4_5 1_555 1_555
H2_5 C5_5 1_555 1_555
H3_5 C5_5 1_555 1_555
H4_5 C5_5 1_555 1_555
H5_5 O4_5 1_555 1_555
O5_5 C6_5 1_555 1_555
O15_3 C9_5 1_555 1_555
C6_5 C7_5 1_555 1_555
C7_5 C8_5 1_555 1_555
C8_5 C4_5 1_555 1_555
H6_5 C8_5 1_555 1_555
C9_5 C3_5 1_555 1_555
Mg5 O2_5 1_555 1_555
Mg8_3 O5_5 1_555 1_555
O9_5 Mg4 1_555 1_555
C7_5 C9_5 1_555 1_555
Mg5 O9_5 1_555 1_555
O12_5 Mg6_3 1_555 1_555
C10_5 O8_5 1_555 1_555
H8_5 C10_5 1_555 1_555
H9_5 C10_5 1_555 1_555
H10_5 O8_5 1_555 1_555
O4_6 Mg4_2 1_555 1_555
C5_6 O4_6 1_555 1_555
H2_6 C5_6 1_555 1_555
H3_6 C5_6 1_555 1_555
H4_6 C5_6 1_555 1_555
H5_6 O4_6 1_555 1_555
O9_6 Mg4_2 1_555 1_555
O9_2 C1_6 1_555 1_555
O2_6 C1_6 1_555 1_555
O13_2 C4_6 1_555 1_555
C1_6 C2_6 1_555 1_555
C2_6 C3_6 1_555 1_555
C3_6 H1_6 1_555 1_555
C4_6 C2_6 1_555 1_555
O5_6 C6_6 1_555 1_555
O15 C9_6 1_555 1_555
C6_6 C7_6 1_555 1_555
C7_6 C8_6 1_555 1_555
C8_6 C4_6 1_555 1_555
H6_6 C8_6 1_555 1_555
C9_6 C3_6 1_555 1_555
Mg6 O5_6 1_555 1_555
Mg5_2 O2_6 1_555 1_555
Mg8 O5_6 1_555 1_555
O12_6 Mg6 1_555 1_555
C7_6 C9_6 1_555 1_555
C10_6 O8_6 1_555 1_555
H8_6 C10_6 1_555 1_555
H9_6 C10_6 1_555 1_555
H10_6 O8_6 1_555 1_555
O8_7 Mg8_3 1_555 1_555
C10_7 O8_7 1_555 1_555
H7_7 C10_7 1_555 1_555
H8_7 C10_7 1_555 1_555
H9_7 C10_7 1_555 1_555
H10_7 O8_7 1_555 1_555
O9_6 C1_7 1_555 1_555
O14_2 C4_7 1_555 1_555
C1_7 C2_7 1_555 1_555
C2_7 C3_7 1_555 1_555
C3_7 H1_7 1_555 1_555
C4_7 C2_7 1_555 1_555
O10_3 C6_7 1_555 1_555
O12_5 C6_7 1_555 1_555
O16_3 C9_7 1_555 1_555
C6_7 C7_7 1_555 1_555
C7_7 C8_7 1_555 1_555
C8_7 C4_7 1_555 1_555
H6_7 C8_7 1_555 1_555
C9_7 C3_7 1_555 1_555
C7_7 C9_7 1_555 1_555
C5_7 O4_7 1_555 1_555
H3_7 C5_7 1_555 1_555
H4_7 C5_7 1_555 1_555
H5_7 O4_7 1_555 1_555
C5_8 O4_8 1_555 1_555
H3_8 C5_8 1_555 1_555
H4_8 C5_8 1_555 1_555
H5_8 O4_8 1_555 1_555
O9_4 C1_8 1_555 1_555
O14_3 C4_8 1_555 1_555
C1_8 C2_8 1_555 1_555
C2_8 C3_8 1_555 1_555
C3_8 H1_8 1_555 1_555
C4_8 C2_8 1_555 1_555
O10 C6_8 1_555 1_555
O12_6 C6_8 1_555 1_555
O16 C9_8 1_555 1_555
C6_8 C7_8 1_555 1_555
C7_8 C8_8 1_555 1_555
C8_8 C4_8 1_555 1_555
H6_8 C8_8 1_555 1_555
C9_8 C3_8 1_555 1_555
O8_8 Mg8 1_555 1_555
C10_8 O8_8 1_555 1_555
H7_8 C10_8 1_555 1_555
H8_8 C10_8 1_555 1_555
H9_8 C10_8 1_555 1_555
H10_8 O8_8 1_555 1_555
C7_8 C9_8 1_555 1_555
C5_9 O4_9 1_555 1_555
H3_9 C5_9 1_555 1_555
H4_9 C5_9 1_555 1_555
H5_9 O4_9 1_555 1_555
O9_5 C1_9 1_555 1_555
O14 C4_9 1_555 1_555
C1_9 C2_9 1_555 1_555
C2_9 C3_9 1_555 1_555
C3_9 H1_9 1_555 1_555
C4_9 C2_9 1_555 1_555
O10_2 C6_9 1_555 1_555
O12_4 C6_9 1_555 1_555
O16_2 C9_9 1_555 1_555
C6_9 C7_9 1_555 1_555
C7_9 C8_9 1_555 1_555
C8_9 C4_9 1_555 1_555
H6_9 C8_9 1_555 1_555
C9_9 C3_9 1_555 1_555
C7_9 C9_9 1_555 1_555
O8_9 Mg8_2 1_555 1_555
C10_9 O8_9 1_555 1_555
H7_9 C10_9 1_555 1_555
H8_9 C10_9 1_555 1_555
H9_9 C10_9 1_555 1_555
H10_9 O8_9 1_555 1_555

#END
