
###############################################################################
#
# This file contains modified crystal structure data generated from the
# MOF subset of the Cambridge Structural Database (CSD) v543 
# hosted by the Cambridge Crystallographic Data Centre (CCDC).
#
# This work is licensed under the Creative Commons
# Attribution-NonCommercial-ShareAlike 4.0 International License.
# To view a copy of this license, visit
# http://creativecommons.org/licenses/by-nc-sa/4.0/
# or send a letter to
# Creative Commons, PO Box 1866, Mountain View, CA 94042, USA.
#
# CIF created using the CSD Python API on 29 September 2022
# The structure has been converted into the P1 space group
# The structure has a 3D framework
# The original CSD entry ZOHPOE is in the rhombohedral crystal system
# The framework has been calculated to contain at least 10.0% void space
# The void calculation uses a probe of radius 1.32A, grid spacing 0.4
#
###############################################################################

data_ZOHPOE
_chemical_formula_moiety         '(C90 H18 Mg18 O90)n'
_symmetry_cell_setting           triclinic
_symmetry_space_group_name_H-M   'P 1'
_symmetry_Int_Tables_number      1
_space_group_name_Hall           'P 1'
loop_
_symmetry_equiv_pos_site_id
_symmetry_equiv_pos_as_xyz
1 x,y,z
_cell_length_a                   25.839(4)
_cell_length_b                   25.839(4)
_cell_length_c                   6.8930(14)
_cell_angle_alpha                90
_cell_angle_beta                 90
_cell_angle_gamma                120
_cell_volume                     3985.57
loop_
_atom_site_label
_atom_site_type_symbol
_atom_site_fract_x
_atom_site_fract_y
_atom_site_fract_z
Mg7 Mg 0.64780(2) 0.03126(3) 0.14525(8)
O12 O 0.72551(5) 0.08255(7) 0.00255(16)
O13 O 0.64962(9) 0.10749(12) 0.2721(3)
O14 O 0.70344(5) 0.02806(7) 0.35578(16)
C10 C 0.6883(6) 0.1569(9) 0.244(2)
O17 O 0.7070(9) 0.2070(13) 0.271(3)
Mg6 Mg 0.71679(2) 0.01887(2) 0.81192(8)
O16 O 0.59533(8) 0.03164(9) 0.92514(16)
O4 O 0.56369(5) 0.59533(8) 0.07486(16)
C5 C 0.65061(7) 0.81979(7) 0.0244(2)
H1 H 0.640021 0.811117 0.157295
Mg3 Mg 0.69793(3) 0.71679(2) 0.18808(8)
C9 C 0.65110(6) 0.91407(6) 0.0870(2)
O10 O 0.65795(5) 0.96323(5) 0.02245(16)
O11 O 0.63503(9) 0.89702(5) 0.25847(16)
Mg8 Mg 0.63541(3) 0.94987(2) 0.47858(8)
O15 O 0.58412(7) 0.97629(5) 0.33588(16)
Mg1 Mg 0.61654(2) 0.64780(2) 0.85475(8)
O1 O 0.67538(5) 0.70344(5) 0.64422(16)
O2 O 0.64296(5) 0.72551(5) 0.99745(16)
O3 O 0.54213(8) 0.64962(9) 0.7279(3)
C1 C 0.68223(6) 0.75260(6) 0.5797(2)
C2 C 0.65495(6) 0.77696(6) 0.9125(2)
C3 C 0.5314(7) 0.6883(6) 0.756(2)
C4 C 0.67229(7) 0.79184(6) 0.7154(2)
O5 O 0.5000(9) 0.7070(9) 0.729(3)
O6 O 0.69473(7) 0.65795(5) 0.97755(16)
O7 O 0.60782(5) 0.58412(7) 0.66412(16)
Mg2 Mg 0.68553(2) 0.63541(3) 0.52142(8)
O8 O 0.69831(9) 0.76964(5) 0.40819(16)
C6 C 0.68272(7) 0.84688(7) 0.6423(2)
C7 C 0.66104(7) 0.87483(6) 0.9513(2)
C8 C 0.67838(6) 0.88971(6) 0.7542(2)
H2 H 0.693312 0.855550 0.509372
O9 O 0.69037(5) 0.94116(5) 0.66922(16)
O6_2 O 0.34205(5) 0.03677(9) 0.97755(16)
O7_2 O 0.41588(7) 0.02371(9) 0.66412(16)
Mg2_2 Mg 0.36459(3) 0.05013(4) 0.52142(8)
O4_2 O 0.40467(8) 0.96836(9) 0.07486(16)
C5_2 C 0.18021(7) 0.83082(10) 0.0244(2)
H1_2 H 0.188883 0.828904 0.157295
Mg3_2 Mg 0.28321(2) 0.98113(4) 0.18808(8)
C9_2 C 0.08593(6) 0.73704(8) 0.0870(2)
O10_2 O 0.03677(5) 0.69473(7) 0.02245(16)
O11_2 O 0.10298(5) 0.73800(10) 0.25847(16)
Mg8_2 Mg 0.05013(2) 0.68553(4) 0.47858(8)
O15_2 O 0.02371(5) 0.60782(9) 0.33588(16)
Mg1_2 Mg 0.35220(2) 0.96874(3) 0.85475(8)
O1_2 O 0.29656(5) 0.97194(7) 0.64422(16)
O2_2 O 0.27449(5) 0.91745(7) 0.99745(16)
O3_2 O 0.35038(9) 0.89251(12) 0.7279(3)
C1_2 C 0.24740(6) 0.92963(8) 0.5797(2)
C2_2 C 0.22304(6) 0.87799(8) 0.9125(2)
C3_2 C 0.3117(6) 0.8431(9) 0.756(2)
C4_2 C 0.20816(6) 0.88045(9) 0.7154(2)
O5_2 O 0.2930(9) 0.7930(13) 0.729(3)
O8_2 O 0.23036(5) 0.92866(10) 0.40819(16)
C6_2 C 0.15312(7) 0.83585(10) 0.6423(2)
C7_2 C 0.12517(6) 0.78622(9) 0.9513(2)
C8_2 C 0.11029(6) 0.78868(8) 0.7542(2)
H2_2 H 0.144450 0.837763 0.509372
O9_2 O 0.05884(5) 0.74922(7) 0.66922(16)
Mg7_2 Mg 0.96874(3) 0.61654(4) 0.14525(8)
O12_2 O 0.91745(7) 0.64296(9) 0.00255(16)
O13_2 O 0.89251(12) 0.54213(15) 0.2721(3)
O14_2 O 0.97194(7) 0.67538(9) 0.35578(16)
C10_2 C 0.8431(9) 0.5314(11) 0.244(2)
O17_2 O 0.7930(13) 0.5000(16) 0.271(3)
Mg6_2 Mg 0.98113(2) 0.69793(3) 0.81192(8)
O16_2 O 0.96836(9) 0.56369(12) 0.92514(16)
O4_3 O 0.03164(9) 0.43631(5) 0.07486(16)
C5_3 C 0.16918(10) 0.34939(7) 0.0244(2)
H1_3 H 0.171096 0.359979 0.157295
Mg3_3 Mg 0.01887(4) 0.30207(3) 0.18808(8)
C9_3 C 0.26296(8) 0.34890(6) 0.0870(2)
O10_3 O 0.30527(7) 0.34205(5) 0.02245(16)
O11_3 O 0.26200(10) 0.36497(9) 0.25847(16)
Mg7_3 Mg 0.38346(4) 0.35220(2) 0.14525(8)
Mg8_3 Mg 0.31447(4) 0.36459(3) 0.47858(8)
O12_3 O 0.35704(9) 0.27449(5) 0.00255(16)
O13_3 O 0.45787(15) 0.35038(9) 0.2721(3)
O14_3 O 0.32462(9) 0.29656(5) 0.35578(16)
O15_3 O 0.39218(9) 0.41588(7) 0.33588(16)
C10_3 C 0.4686(11) 0.3117(6) 0.244(2)
O17_3 O 0.5000(16) 0.2930(9) 0.271(3)
Mg1_3 Mg 0.03126(3) 0.38346(2) 0.85475(8)
O1_3 O 0.02806(7) 0.32462(5) 0.64422(16)
O2_3 O 0.08255(7) 0.35704(5) 0.99745(16)
O3_3 O 0.10749(12) 0.45787(8) 0.7279(3)
C1_3 C 0.07037(8) 0.31777(6) 0.5797(2)
C2_3 C 0.12201(8) 0.34505(6) 0.9125(2)
C3_3 C 0.1569(9) 0.4686(7) 0.756(2)
C4_3 C 0.11955(9) 0.32771(7) 0.7154(2)
O5_3 O 0.2070(13) 0.5000(9) 0.729(3)
O8_3 O 0.07134(10) 0.30169(9) 0.40819(16)
C6_3 C 0.16415(10) 0.31728(7) 0.6423(2)
C7_3 C 0.21378(9) 0.33896(7) 0.9513(2)
C8_3 C 0.21132(8) 0.32162(6) 0.7542(2)
H2_3 H 0.162237 0.306688 0.509372
O9_3 O 0.25078(7) 0.30963(5) 0.66922(16)
Mg6_3 Mg 0.30207(3) 0.28321(2) 0.81192(8)
O16_3 O 0.43631(12) 0.40467(8) 0.92514(16)
O6_3 O 0.96323(9) 0.30527(7) 0.97755(16)
O7_3 O 0.97629(9) 0.39218(5) 0.66412(16)
Mg2_3 Mg 0.94987(4) 0.31447(2) 0.52142(8)
O2_4 O 0.30963(5) 0.05884(5) 0.33078(16)
C2_4 C 0.32162(6) 0.11029(6) 0.2458(2)
C3_4 C 0.1981(7) 0.0216(6) 0.089(2)
C4_4 C 0.33896(7) 0.12517(6) 0.0487(2)
C5_4 C 0.31728(7) 0.15312(7) 0.3577(2)
O5_4 O 0.1667(9) 0.0403(9) 0.062(3)
H1_4 H 0.306688 0.144450 0.490628
C7_4 C 0.32771(7) 0.20816(6) 0.2846(2)
C8_4 C 0.34505(6) 0.22304(6) 0.0875(2)
C9_4 C 0.31777(6) 0.24740(6) 0.4203(2)
O11_4 O 0.30169(9) 0.23036(5) 0.59181(16)
O13_4 O 0.31629(9) 0.44082(12) 0.6054(3)
O14_4 O 0.37011(5) 0.36139(7) 0.68911(16)
C10_4 C 0.3550(6) 0.4902(9) 0.577(2)
O17_4 O 0.3737(9) 0.5403(13) 0.604(3)
C1_4 C 0.34890(6) 0.08593(6) 0.9130(2)
O8_4 O 0.36497(9) 0.10298(5) 0.74153(16)
C6_4 C 0.34939(7) 0.18021(7) 0.9756(2)
H2_4 H 0.359979 0.188883 0.842705
O3_4 O 0.20880(8) 0.98295(9) 0.0612(3)
O6_4 O 0.36139(7) 0.99129(5) 0.31089(16)
O3_5 O 0.01705(9) 0.22584(12) 0.0612(3)
O6_5 O 0.00871(5) 0.37011(9) 0.31089(16)
O2_5 O 0.94116(5) 0.25078(7) 0.33078(16)
C2_5 C 0.88971(6) 0.21132(8) 0.2458(2)
C3_5 C 0.9784(6) 0.1764(9) 0.089(2)
C4_5 C 0.87483(6) 0.21378(9) 0.0487(2)
C5_5 C 0.84688(7) 0.16415(10) 0.3577(2)
O5_5 O 0.9597(9) 0.1263(13) 0.062(3)
H1_5 H 0.855550 0.162237 0.490628
C7_5 C 0.79184(6) 0.11955(9) 0.2846(2)
C8_5 C 0.77696(6) 0.12201(8) 0.0875(2)
C9_5 C 0.75260(6) 0.07037(8) 0.4203(2)
O11_5 O 0.76964(5) 0.07134(10) 0.59181(16)
O14_5 O 0.63861(7) 0.00871(9) 0.68911(16)
C1_5 C 0.91407(6) 0.26296(8) 0.9130(2)
O8_5 O 0.89702(5) 0.26200(10) 0.74153(16)
C6_5 C 0.81979(7) 0.16918(10) 0.9756(2)
H2_5 H 0.811117 0.171096 0.842705
O13_5 O 0.55918(12) 0.87546(15) 0.6054(3)
C10_5 C 0.5098(9) 0.8647(11) 0.577(2)
O17_5 O 0.4597(13) 0.8333(16) 0.604(3)
O13_6 O 0.12454(15) 0.68371(9) 0.6054(3)
C10_6 C 0.1353(11) 0.6450(6) 0.577(2)
O17_6 O 0.1667(16) 0.6263(9) 0.604(3)
O2_6 O 0.74922(7) 0.69037(5) 0.33078(16)
O3_6 O 0.77416(12) 0.79120(8) 0.0612(3)
C2_6 C 0.78868(8) 0.67838(6) 0.2458(2)
C3_6 C 0.8236(9) 0.8019(7) 0.089(2)
C4_6 C 0.78622(9) 0.66104(7) 0.0487(2)
C5_6 C 0.83585(10) 0.68272(7) 0.3577(2)
O5_6 O 0.8737(13) 0.8333(9) 0.062(3)
H1_6 H 0.837763 0.693312 0.490628
O6_6 O 0.62989(9) 0.63861(7) 0.31089(16)
C7_6 C 0.88045(9) 0.67229(7) 0.2846(2)
C8_6 C 0.87799(8) 0.65495(6) 0.0875(2)
C9_6 C 0.92963(8) 0.68223(6) 0.4203(2)
O11_6 O 0.92866(10) 0.69831(9) 0.59181(16)
O14_6 O 0.99129(9) 0.62989(5) 0.68911(16)
C1_6 C 0.73704(8) 0.65110(6) 0.9130(2)
O8_6 O 0.73800(10) 0.63503(9) 0.74153(16)
C6_6 C 0.83082(10) 0.65061(7) 0.9756(2)
H2_6 H 0.828904 0.640021 0.842705
C1_7 C 0.01556(6) 0.41927(6) 0.2464(2)
C4_7 C 0.00562(7) 0.45851(6) 0.3821(2)
C6_7 C 0.01606(7) 0.51354(7) 0.3089(2)
C8_7 C 0.01172(6) 0.55637(6) 0.4208(2)
H2_7 H 0.026646 0.522216 0.176038
C10_7 C 0.0216(6) 0.8236(9) 0.911(2)
O17_7 O 0.0403(9) 0.8737(13) 0.938(3)
O3_7 O 0.87546(8) 0.31629(9) 0.3946(3)
C2_7 C 0.98828(6) 0.44363(6) 0.5792(2)
C3_7 C 0.8647(7) 0.3550(6) 0.423(2)
C5_7 C 0.98394(7) 0.48646(7) 0.6911(2)
O5_7 O 0.8333(9) 0.3737(9) 0.396(3)
H1_7 H 0.973354 0.477784 0.823962
C7_7 C 0.99438(7) 0.54149(6) 0.6179(2)
C9_7 C 0.98444(6) 0.58073(6) 0.7536(2)
O13_7 O 0.98295(9) 0.77416(12) 0.9388(3)
O3_8 O 0.68371(9) 0.55918(12) 0.3946(3)
C1_8 C 0.58073(6) 0.59630(8) 0.2464(2)
C2_8 C 0.55637(6) 0.54466(8) 0.5792(2)
C3_8 C 0.6450(6) 0.5098(9) 0.423(2)
C4_8 C 0.54149(6) 0.54712(9) 0.3821(2)
C5_8 C 0.51354(7) 0.49749(10) 0.6911(2)
O5_8 O 0.6263(9) 0.4597(13) 0.396(3)
H1_8 H 0.522216 0.495571 0.823962
C6_8 C 0.48646(7) 0.50251(10) 0.3089(2)
C7_8 C 0.45851(6) 0.45288(9) 0.6179(2)
C8_8 C 0.44363(6) 0.45534(8) 0.4208(2)
H2_8 H 0.477784 0.504429 0.176038
C9_8 C 0.41927(6) 0.40370(8) 0.7536(2)
O13_8 O 0.22584(12) 0.20880(15) 0.9388(3)
C10_8 C 0.1764(9) 0.1981(11) 0.911(2)
O17_8 O 0.1263(13) 0.1667(16) 0.938(3)
O3_9 O 0.44082(12) 0.12454(8) 0.3946(3)
C2_9 C 0.45534(8) 0.01172(6) 0.5792(2)
C3_9 C 0.4902(9) 0.1353(7) 0.423(2)
C5_9 C 0.50251(10) 0.01606(7) 0.6911(2)
O5_9 O 0.5403(13) 0.1667(9) 0.396(3)
H1_9 H 0.504429 0.026646 0.823962
C7_9 C 0.54712(9) 0.00562(7) 0.6179(2)
C9_9 C 0.59630(8) 0.01556(6) 0.7536(2)
O13_9 O 0.79120(15) 0.01705(9) 0.9388(3)
C1_9 C 0.40370(8) 0.98444(6) 0.2464(2)
C4_9 C 0.45288(9) 0.99438(7) 0.3821(2)
C6_9 C 0.49749(10) 0.98394(7) 0.3089(2)
C8_9 C 0.54466(8) 0.98828(6) 0.4208(2)
H2_9 H 0.495571 0.973354 0.176038
C10_9 C 0.8019(11) 0.9784(6) 0.911(2)
O17_9 O 0.8333(16) 0.9597(9) 0.938(3)
loop_
_geom_bond_atom_site_label_1
_geom_bond_atom_site_label_2
_geom_bond_site_symmetry_1
_geom_bond_site_symmetry_2
O13 Mg7 1_555 1_555
O14 Mg7 1_555 1_555
C10 O13 1_555 1_555
O17 C10 1_555 1_555
Mg7 O12 1_555 1_555
H1 C5 1_555 1_555
O10 C9 1_555 1_555
O11 C9 1_555 1_555
Mg8 O11 1_555 1_555
Mg8 O15 1_555 1_555
Mg1 O1 1_555 1_555
O1 C1 1_555 1_555
O2 Mg1 1_555 1_555
O3 Mg1 1_555 1_555
C1 C4 1_555 1_555
C2 O2 1_555 1_555
C3 O3 1_555 1_555
C4 C2 1_555 1_555
O5 C3 1_555 1_555
O6 Mg1 1_555 1_555
O7 Mg1 1_555 1_555
Mg2 O1 1_555 1_555
O8 C1 1_555 1_555
Mg3 O8 1_555 1_555
C6 C4 1_555 1_555
C8 C6 1_555 1_555
H2 C6 1_555 1_555
O9 C8 1_555 1_555
Mg8 O9 1_555 1_555
O7 Mg2 1_555 1_555
C7 C8 1_555 1_555
O7_2 Mg2_2 1_555 1_555
H1_2 C5_2 1_555 1_555
O10_2 C9_2 1_555 1_555
O11_2 C9_2 1_555 1_555
Mg8_2 O11_2 1_555 1_555
Mg8_2 O15_2 1_555 1_555
Mg1_2 O1_2 1_555 1_555
O1_2 C1_2 1_555 1_555
O2_2 Mg1_2 1_555 1_555
O3_2 Mg1_2 1_555 1_555
C1_2 C4_2 1_555 1_555
C2_2 O2_2 1_555 1_555
C3_2 O3_2 1_555 1_555
C4_2 C2_2 1_555 1_555
O5_2 C3_2 1_555 1_555
O8_2 C1_2 1_555 1_555
Mg3_2 O8_2 1_555 1_555
C6_2 C4_2 1_555 1_555
C8_2 C6_2 1_555 1_555
H2_2 C6_2 1_555 1_555
O9_2 C8_2 1_555 1_555
Mg8_2 O9_2 1_555 1_555
C7_2 C8_2 1_555 1_555
O13_2 Mg7_2 1_555 1_555
O14_2 Mg7_2 1_555 1_555
C10_2 O13_2 1_555 1_555
O17_2 C10_2 1_555 1_555
Mg7_2 O12_2 1_555 1_555
H1_3 C5_3 1_555 1_555
O10_3 C9_3 1_555 1_555
O11_3 C9_3 1_555 1_555
Mg7_3 O10_3 1_555 1_555
Mg8_3 O11_3 1_555 1_555
O13_3 Mg7_3 1_555 1_555
O14_3 Mg7_3 1_555 1_555
O15_3 Mg7_3 1_555 1_555
C10_3 O13_3 1_555 1_555
O17_3 C10_3 1_555 1_555
Mg7_3 O12_3 1_555 1_555
Mg8_3 O14_3 1_555 1_555
Mg8_3 O15_3 1_555 1_555
Mg1_3 O1_3 1_555 1_555
O1_3 C1_3 1_555 1_555
O2_3 Mg1_3 1_555 1_555
O3_3 Mg1_3 1_555 1_555
C1_3 C4_3 1_555 1_555
C2_3 O2_3 1_555 1_555
C3_3 O3_3 1_555 1_555
C4_3 C2_3 1_555 1_555
O5_3 C3_3 1_555 1_555
O8_3 C1_3 1_555 1_555
Mg3_3 O8_3 1_555 1_555
C6_3 C4_3 1_555 1_555
C8_3 C6_3 1_555 1_555
H2_3 C6_3 1_555 1_555
O9_3 C8_3 1_555 1_555
Mg8_3 O9_3 1_555 1_555
Mg6_3 O9_3 1_555 1_555
C7_3 C8_3 1_555 1_555
O7_3 Mg2_3 1_555 1_555
C2_4 O2_4 1_555 1_555
C4_4 C2_4 1_555 1_555
C5_4 C2_4 1_555 1_555
O5_4 C3_4 1_555 1_555
H1_4 C5_4 1_555 1_555
Mg2_2 O2_4 1_555 1_555
C7_4 C5_4 1_555 1_555
C9_4 C7_4 1_555 1_555
O12_3 C8_4 1_555 1_555
O14_3 C9_4 1_555 1_555
O11_4 C9_4 1_555 1_555
Mg6_3 O11_4 1_555 1_555
O13_4 Mg8_3 1_555 1_555
O14_4 Mg8_3 1_555 1_555
C10_4 O13_4 1_555 1_555
O17_4 C10_4 1_555 1_555
C7_4 C8_4 1_555 1_555
Mg6_3 O14_4 1_555 1_555
O6_2 C1_4 1_555 1_555
O8_4 C1_4 1_555 1_555
Mg2_2 O8_4 1_555 1_555
H2_4 C6_4 1_555 1_555
O3_4 Mg3_2 1_555 1_555
O6_4 Mg3_2 1_555 1_555
O3_5 Mg3_3 1_555 1_555
O6_5 Mg3_3 1_555 1_555
C2_5 O2_5 1_555 1_555
C4_5 C2_5 1_555 1_555
C5_5 C2_5 1_555 1_555
O5_5 C3_5 1_555 1_555
H1_5 C5_5 1_555 1_555
Mg2_3 O2_5 1_555 1_555
C7_5 C5_5 1_555 1_555
C9_5 C7_5 1_555 1_555
O12 C8_5 1_555 1_555
O14 C9_5 1_555 1_555
O11_5 C9_5 1_555 1_555
Mg6 O11_5 1_555 1_555
C7_5 C8_5 1_555 1_555
Mg6 O14_5 1_555 1_555
O6_3 C1_5 1_555 1_555
O8_5 C1_5 1_555 1_555
Mg2_3 O8_5 1_555 1_555
H2_5 C6_5 1_555 1_555
O13_5 Mg8 1_555 1_555
C10_5 O13_5 1_555 1_555
O17_5 C10_5 1_555 1_555
O13_6 Mg8_2 1_555 1_555
C10_6 O13_6 1_555 1_555
O17_6 C10_6 1_555 1_555
O2_6 Mg3 1_555 1_555
O3_6 Mg3 1_555 1_555
C2_6 O2_6 1_555 1_555
C3_6 O3_6 1_555 1_555
C4_6 C2_6 1_555 1_555
C5_6 C2_6 1_555 1_555
O5_6 C3_6 1_555 1_555
H1_6 C5_6 1_555 1_555
O6_6 Mg3 1_555 1_555
Mg2 O2_6 1_555 1_555
C7_6 C5_6 1_555 1_555
C9_6 C7_6 1_555 1_555
O12_2 C8_6 1_555 1_555
O14_2 C9_6 1_555 1_555
O11_6 C9_6 1_555 1_555
Mg6_2 O11_6 1_555 1_555
O6_6 Mg2 1_555 1_555
C7_6 C8_6 1_555 1_555
Mg6_2 O14_6 1_555 1_555
O6 C1_6 1_555 1_555
O8_6 C1_6 1_555 1_555
Mg2 O8_6 1_555 1_555
H2_6 C6_6 1_555 1_555
O6_5 C1_7 1_555 1_555
C1_7 C4_7 1_555 1_555
O4_3 C1_7 1_555 1_555
C6_7 C4_7 1_555 1_555
C8_7 C6_7 1_555 1_555
H2_7 C6_7 1_555 1_555
O15_2 C8_7 1_555 1_555
O17_7 C10_7 1_555 1_555
O3_7 Mg2_3 1_555 1_555
C2_7 O7_3 1_555 1_555
C3_7 O3_7 1_555 1_555
C5_7 C2_7 1_555 1_555
O5_7 C3_7 1_555 1_555
H1_7 C5_7 1_555 1_555
C7_7 C5_7 1_555 1_555
C9_7 C7_7 1_555 1_555
O14_6 C9_7 1_555 1_555
O16_2 C9_7 1_555 1_555
O13_7 Mg6_2 1_555 1_555
O6_6 C1_8 1_555 1_555
O3_8 Mg2 1_555 1_555
C1_8 C4_8 1_555 1_555
C2_8 O7 1_555 1_555
C3_8 O3_8 1_555 1_555
C4_8 C2_8 1_555 1_555
C5_8 C2_8 1_555 1_555
O5_8 C3_8 1_555 1_555
H1_8 C5_8 1_555 1_555
O4 C1_8 1_555 1_555
C6_8 C4_8 1_555 1_555
C7_8 C5_8 1_555 1_555
C8_8 C6_8 1_555 1_555
H2_8 C6_8 1_555 1_555
C9_8 C7_8 1_555 1_555
O15_3 C8_8 1_555 1_555
O14_4 C9_8 1_555 1_555
O16_3 C9_8 1_555 1_555
O13_8 Mg6_3 1_555 1_555
C10_8 O13_8 1_555 1_555
O17_8 C10_8 1_555 1_555
C7_8 C8_8 1_555 1_555
O3_9 Mg2_2 1_555 1_555
C2_9 O7_2 1_555 1_555
C3_9 O3_9 1_555 1_555
C5_9 C2_9 1_555 1_555
O5_9 C3_9 1_555 1_555
H1_9 C5_9 1_555 1_555
C7_9 C5_9 1_555 1_555
C9_9 C7_9 1_555 1_555
O14_5 C9_9 1_555 1_555
O16 C9_9 1_555 1_555
O13_9 Mg6 1_555 1_555
O6_4 C1_9 1_555 1_555
C1_9 C4_9 1_555 1_555
O4_2 C1_9 1_555 1_555
C6_9 C4_9 1_555 1_555
C8_9 C6_9 1_555 1_555
H2_9 C6_9 1_555 1_555
O15 C8_9 1_555 1_555
O17_9 C10_9 1_555 1_555

#END
