
###############################################################################
#
# This file contains modified crystal structure data generated from the
# MOF subset of the Cambridge Structural Database (CSD) v543 
# hosted by the Cambridge Crystallographic Data Centre (CCDC).
#
# This work is licensed under the Creative Commons
# Attribution-NonCommercial-ShareAlike 4.0 International License.
# To view a copy of this license, visit
# http://creativecommons.org/licenses/by-nc-sa/4.0/
# or send a letter to
# Creative Commons, PO Box 1866, Mountain View, CA 94042, USA.
#
# CIF created using the CSD Python API on 29 September 2022
# The structure has been converted into the P1 space group
# The structure has a 3D framework
# The original CSD entry ZOHQAR is in the rhombohedral crystal system
# The framework has been calculated to contain at least 10.0% void space
# The void calculation uses a probe of radius 1.32A, grid spacing 0.4
#
###############################################################################

data_ZOHQAR
_chemical_formula_moiety         '(C90 H18 Co18 O90)n'
_symmetry_cell_setting           triclinic
_symmetry_space_group_name_H-M   'P 1'
_symmetry_Int_Tables_number      1
_space_group_name_Hall           'P 1'
loop_
_symmetry_equiv_pos_site_id
_symmetry_equiv_pos_as_xyz
1 x,y,z
_cell_length_a                   25.897(4)
_cell_length_b                   25.897(4)
_cell_length_c                   6.8390(14)
_cell_angle_alpha                90
_cell_angle_beta                 90
_cell_angle_gamma                120
_cell_volume                     3972.12
loop_
_atom_site_label
_atom_site_type_symbol
_atom_site_fract_x
_atom_site_fract_y
_atom_site_fract_z
O5 O 0.9008(8) 0.0825(8) 0.042(2)
Co3 Co 0.64733(2) 0.03095(3) 0.14761(3)
O11 O 0.72520(5) 0.08282(7) 0.00478(15)
Co1 Co 0.71696(2) 0.01934(2) 0.81428(3)
O4 O 0.79864(9) 0.02061(10) 0.9408(3)
C5 C 0.8482(4) 0.0523(4) 0.9695(19)
O13 O 0.70318(7) 0.03050(9) 0.36287(15)
O14 O 0.63617(9) 0.00601(5) 0.69620(15)
O15 O 0.77131(8) 0.07199(10) 0.59709(15)
O7 O 0.66065(5) 0.96349(7) 0.02954(15)
O8 O 0.63401(6) 0.89536(8) 0.26376(15)
C6 C 0.65189(6) 0.91366(8) 0.09213(19)
C8 C 0.65063(7) 0.81946(6) 0.02648(19)
H2 H 0.639886 0.810333 0.160088
Co4 Co 0.63571(3) 0.94971(2) 0.48095(3)
Co6 Co 0.69762(3) 0.71696(2) 0.18572(3)
O1 O 0.69096(5) 0.94147(5) 0.67145(15)
O2 O 0.67268(5) 0.70318(7) 0.63713(15)
O3 O 0.69932(6) 0.77131(8) 0.40291(15)
C1 C 0.68144(6) 0.75301(8) 0.57454(19)
C2 C 0.67849(6) 0.88969(6) 0.75608(18)
C3 C 0.68270(7) 0.84721(6) 0.64019(19)
H1 H 0.693447 0.856334 0.506579
C4 C 0.67184(6) 0.79220(6) 0.71195(18)
O6 O 0.64237(5) 0.72520(5) 0.99522(15)
C7 C 0.65484(6) 0.77698(6) 0.91059(18)
C9 C 0.66149(6) 0.87447(6) 0.95472(18)
O9 O 0.55530(13) 0.86803(9) 0.6075(3)
O10 O 0.5150(11) 0.7659(8) 0.709(2)
C10 C 0.5374(6) 0.8185(4) 0.6362(19)
Co7 Co 0.68601(2) 0.63571(3) 0.51905(3)
Co8 Co 0.61637(2) 0.64733(2) 0.85239(3)
O12 O 0.58384(7) 0.97571(5) 0.33812(15)
Co7_2 Co 0.36429(3) 0.05029(4) 0.51905(3)
O7_2 O 0.03651(7) 0.69717(9) 0.02954(15)
O8_2 O 0.10464(8) 0.73866(10) 0.26376(15)
C6_2 C 0.08634(8) 0.73824(10) 0.09213(19)
C8_2 C 0.18054(6) 0.83118(9) 0.02648(19)
H2_2 H 0.189667 0.829554 0.160088
Co4_2 Co 0.05029(2) 0.68601(4) 0.48095(3)
Co6_2 Co 0.28304(2) 0.98066(4) 0.18572(3)
O1_2 O 0.05853(5) 0.74949(7) 0.67145(15)
O2_2 O 0.29682(7) 0.96950(9) 0.63713(15)
O3_2 O 0.22869(8) 0.92801(10) 0.40291(15)
C1_2 C 0.24699(8) 0.92843(10) 0.57454(19)
C2_2 C 0.11031(6) 0.78880(8) 0.75608(18)
C3_2 C 0.15279(6) 0.83549(9) 0.64019(19)
H1_2 H 0.143666 0.837113 0.506579
C4_2 C 0.20780(6) 0.87964(8) 0.71195(18)
O6_2 O 0.27480(5) 0.91718(7) 0.99522(15)
C7_2 C 0.22302(6) 0.87787(8) 0.91059(18)
C9_2 C 0.12553(6) 0.78703(8) 0.95472(18)
O9_2 O 0.13197(9) 0.68728(16) 0.6075(3)
O10_2 O 0.2341(8) 0.7492(14) 0.709(2)
C10_2 C 0.1815(4) 0.7190(7) 0.6362(19)
Co8_2 Co 0.35267(2) 0.96905(3) 0.85239(3)
O12_2 O 0.02429(5) 0.60814(9) 0.33812(15)
O5_2 O 0.9175(8) 0.8183(11) 0.042(2)
Co3_2 Co 0.96905(3) 0.61637(4) 0.14761(3)
O11_2 O 0.91718(7) 0.64237(9) 0.00478(15)
Co1_2 Co 0.98066(2) 0.69762(3) 0.81428(3)
O4_2 O 0.97939(10) 0.77803(13) 0.9408(3)
C5_2 C 0.9477(4) 0.7959(6) 0.9695(19)
O13_2 O 0.96950(9) 0.67268(11) 0.36287(15)
O14_2 O 0.99399(5) 0.63015(10) 0.69620(15)
O15_2 O 0.92801(10) 0.69932(13) 0.59709(15)
O5_3 O 0.1817(11) 0.0992(8) 0.042(2)
O7_3 O 0.30283(9) 0.33935(5) 0.02954(15)
O8_3 O 0.26134(10) 0.36599(6) 0.26376(15)
C6_3 C 0.26176(10) 0.34811(6) 0.09213(19)
C8_3 C 0.16882(9) 0.34937(7) 0.02648(19)
H2_3 H 0.170446 0.360114 0.160088
Co3_3 Co 0.38363(4) 0.35267(2) 0.14761(3)
Co4_3 Co 0.31399(4) 0.36429(3) 0.48095(3)
Co6_3 Co 0.01934(4) 0.30238(3) 0.18572(3)
O11_3 O 0.35763(9) 0.27480(5) 0.00478(15)
Co1_3 Co 0.30238(3) 0.28304(2) 0.81428(3)
O1_3 O 0.25051(7) 0.30904(5) 0.67145(15)
O2_3 O 0.03050(9) 0.32732(5) 0.63713(15)
O3_3 O 0.07199(10) 0.30068(6) 0.40291(15)
C1_3 C 0.07157(10) 0.31856(6) 0.57454(19)
C2_3 C 0.21120(8) 0.32151(6) 0.75608(18)
C3_3 C 0.16451(9) 0.31730(7) 0.64019(19)
H1_3 H 0.162887 0.306553 0.506579
C4_3 C 0.12036(8) 0.32816(6) 0.71195(18)
O4_3 O 0.22197(13) 0.20136(9) 0.9408(3)
C5_3 C 0.2041(6) 0.1518(4) 0.9695(19)
O6_3 O 0.08282(7) 0.35763(5) 0.99522(15)
C7_3 C 0.12213(8) 0.34516(6) 0.91059(18)
C9_3 C 0.21297(8) 0.33851(6) 0.95472(18)
O9_3 O 0.31272(16) 0.44470(13) 0.6075(3)
O10_3 O 0.2508(14) 0.4850(11) 0.709(2)
C10_3 C 0.2810(7) 0.4626(6) 0.6362(19)
Co8_3 Co 0.03095(3) 0.38363(2) 0.85239(3)
O12_3 O 0.39186(9) 0.41616(7) 0.33812(15)
O13_3 O 0.32732(11) 0.29682(7) 0.36287(15)
O14_3 O 0.36985(10) 0.36383(9) 0.69620(15)
O15_3 O 0.30068(13) 0.22869(8) 0.59709(15)
Co7_3 Co 0.94971(4) 0.31399(2) 0.51905(3)
C2_4 C 0.34516(6) 0.22302(6) 0.08941(18)
C4_4 C 0.33851(6) 0.12553(6) 0.04528(18)
O4_4 O 0.46531(9) 0.35394(10) 0.2741(3)
O5_4 O 0.5675(8) 0.4158(8) 0.375(2)
C5_4 C 0.5149(4) 0.3856(4) 0.3028(19)
O6_4 O 0.30904(5) 0.05853(5) 0.32855(15)
C6_4 C 0.31856(6) 0.24699(8) 0.42546(19)
C7_4 C 0.32151(6) 0.11031(6) 0.24392(18)
C8_4 C 0.31730(7) 0.15279(6) 0.35981(19)
H2_4 H 0.306553 0.143666 0.493421
C9_4 C 0.32816(6) 0.20780(6) 0.28805(18)
O2_4 O 0.33935(5) 0.03651(7) 0.97046(15)
O3_4 O 0.36599(6) 0.10464(8) 0.73624(15)
C1_4 C 0.34811(6) 0.08634(8) 0.90787(19)
C3_4 C 0.34937(7) 0.18054(6) 0.97352(19)
H1_4 H 0.360114 0.189667 0.839912
O15_4 O 0.43798(8) 0.40532(10) 0.93042(15)
C2_5 C 0.77698(6) 0.12213(8) 0.08941(18)
C4_5 C 0.87447(6) 0.21297(8) 0.04528(18)
O4_5 O 0.64606(10) 0.11136(13) 0.2741(3)
O5_5 O 0.5842(8) 0.1516(11) 0.375(2)
C5_5 C 0.6144(4) 0.1292(6) 0.3028(19)
O6_5 O 0.94147(5) 0.25051(7) 0.32855(15)
C6_5 C 0.75301(8) 0.07157(10) 0.42546(19)
C7_5 C 0.88969(6) 0.21120(8) 0.24392(18)
C8_5 C 0.84721(6) 0.16451(9) 0.35981(19)
H2_5 H 0.856334 0.162887 0.493421
C9_5 C 0.79220(6) 0.12036(8) 0.28805(18)
O2_5 O 0.96349(7) 0.30283(9) 0.97046(15)
O3_5 O 0.89536(8) 0.26134(10) 0.73624(15)
C1_5 C 0.91366(8) 0.26176(10) 0.90787(19)
C3_5 C 0.81946(6) 0.16882(9) 0.97352(19)
H1_5 H 0.810333 0.170446 0.839912
O15_5 O 0.59468(10) 0.03265(13) 0.93042(15)
C2_6 C 0.87787(8) 0.65484(6) 0.08941(18)
C4_6 C 0.78703(8) 0.66149(6) 0.04528(18)
O4_6 O 0.88864(13) 0.53469(9) 0.2741(3)
O5_6 O 0.8484(11) 0.4325(8) 0.375(2)
C5_6 C 0.8708(6) 0.4851(4) 0.3028(19)
O6_6 O 0.74949(7) 0.69096(5) 0.32855(15)
C6_6 C 0.92843(10) 0.68144(6) 0.42546(19)
C7_6 C 0.78880(8) 0.67849(6) 0.24392(18)
C8_6 C 0.83549(9) 0.68270(7) 0.35981(19)
H2_6 H 0.837113 0.693447 0.493421
C9_6 C 0.87964(8) 0.67184(6) 0.28805(18)
O2_6 O 0.69717(9) 0.66065(5) 0.97046(15)
O3_6 O 0.73866(10) 0.63401(6) 0.73624(15)
C1_6 C 0.73824(10) 0.65189(6) 0.90787(19)
C3_6 C 0.83118(9) 0.65063(7) 0.97352(19)
H1_6 H 0.829554 0.639886 0.839912
O15_6 O 0.96735(13) 0.56202(8) 0.93042(15)
O2_7 O 0.00601(5) 0.36985(7) 0.30380(15)
O3_7 O 0.03265(6) 0.43798(8) 0.06958(15)
C1_7 C 0.01477(6) 0.41968(8) 0.24121(19)
C2_7 C 0.01182(6) 0.55636(6) 0.42275(18)
C3_7 C 0.01603(7) 0.51388(6) 0.30686(19)
H1_7 H 0.026780 0.523001 0.173246
C4_7 C 0.00517(6) 0.45887(6) 0.37862(18)
O6_7 O 0.97571(5) 0.39186(5) 0.66188(15)
C6_7 C 0.98523(6) 0.58032(8) 0.75879(19)
C7_7 C 0.98818(6) 0.44364(6) 0.57725(18)
C8_7 C 0.98397(7) 0.48612(6) 0.69314(19)
H2_7 H 0.973220 0.476999 0.826754
C9_7 C 0.99483(6) 0.54113(6) 0.62138(18)
O2_8 O 0.63015(7) 0.63617(9) 0.30380(15)
O3_8 O 0.56202(8) 0.59468(10) 0.06958(15)
C1_8 C 0.58032(8) 0.59510(10) 0.24121(19)
C2_8 C 0.44364(6) 0.45547(8) 0.42275(18)
C3_8 C 0.48612(6) 0.50216(9) 0.30686(19)
H1_8 H 0.476999 0.503780 0.173246
C4_8 C 0.54113(6) 0.54631(8) 0.37862(18)
O6_8 O 0.60814(5) 0.58384(7) 0.66188(15)
C6_8 C 0.41968(8) 0.40490(10) 0.75879(19)
C7_8 C 0.55636(6) 0.54453(8) 0.57725(18)
C8_8 C 0.51388(6) 0.49784(9) 0.69314(19)
H2_8 H 0.523001 0.496220 0.826754
C9_8 C 0.45887(6) 0.45369(8) 0.62138(18)
O6_9 O 0.41616(7) 0.02429(5) 0.66188(15)
C6_9 C 0.59510(10) 0.01477(6) 0.75879(19)
C7_9 C 0.45547(8) 0.01182(6) 0.57725(18)
C8_9 C 0.50216(9) 0.01603(7) 0.69314(19)
H2_9 H 0.503780 0.026780 0.826754
C9_9 C 0.54631(8) 0.00517(6) 0.62138(18)
O2_9 O 0.36383(9) 0.99399(5) 0.30380(15)
O3_9 O 0.40532(10) 0.96735(6) 0.06958(15)
C1_9 C 0.40490(10) 0.98523(6) 0.24121(19)
C2_9 C 0.54453(8) 0.98818(6) 0.42275(18)
C3_9 C 0.49784(9) 0.98397(7) 0.30686(19)
H1_9 H 0.496220 0.973220 0.173246
C4_9 C 0.45369(8) 0.99483(6) 0.37862(18)
O9_4 O 0.44470(13) 0.13197(9) 0.3925(3)
O10_4 O 0.4850(11) 0.2341(8) 0.291(2)
C10_4 C 0.4626(6) 0.1815(4) 0.3638(19)
O4_7 O 0.20136(9) 0.97939(10) 0.0592(3)
C5_7 C 0.1518(4) 0.9477(4) 0.0305(19)
O5_7 O 0.0992(8) 0.9175(8) 0.958(2)
O4_8 O 0.02061(10) 0.22197(13) 0.0592(3)
C5_8 C 0.0523(4) 0.2041(6) 0.0305(19)
O5_8 O 0.0825(8) 0.1817(11) 0.958(2)
O9_5 O 0.86803(9) 0.31272(16) 0.3925(3)
O10_5 O 0.7659(8) 0.2508(14) 0.291(2)
C10_5 C 0.8185(4) 0.2810(7) 0.3638(19)
O4_9 O 0.77803(13) 0.79864(9) 0.0592(3)
C5_9 C 0.7959(6) 0.8482(4) 0.0305(19)
O9_6 O 0.68728(16) 0.55530(13) 0.3925(3)
O10_6 O 0.7492(14) 0.5150(11) 0.291(2)
C10_6 C 0.7190(7) 0.5374(6) 0.3638(19)
O5_9 O 0.8183(11) 0.9008(8) 0.958(2)
O4_10 O 0.53469(9) 0.64606(10) 0.7259(3)
O5_10 O 0.4325(8) 0.5842(8) 0.625(2)
C5_10 C 0.4851(4) 0.6144(4) 0.6972(19)
O4_11 O 0.35394(10) 0.88864(13) 0.7259(3)
O5_11 O 0.4158(8) 0.8484(11) 0.625(2)
C5_11 C 0.3856(4) 0.8708(6) 0.6972(19)
O4_12 O 0.11136(13) 0.46531(9) 0.7259(3)
O5_12 O 0.1516(11) 0.5675(8) 0.625(2)
C5_12 C 0.1292(6) 0.5149(4) 0.6972(19)
loop_
_geom_bond_atom_site_label_1
_geom_bond_atom_site_label_2
_geom_bond_site_symmetry_1
_geom_bond_site_symmetry_2
Co3 O11 1_555 1_555
O4 Co1 1_555 1_555
C5 O4 1_555 1_555
O14 Co1 1_555 1_555
O15 Co1 1_555 1_555
O8 C6 1_555 1_555
C6 O7 1_555 1_555
H2 C8 1_555 1_555
Co4 O8 1_555 1_555
O1 C2 1_555 1_555
O2 C1 1_555 1_555
O3 C1 1_555 1_555
C1 C4 1_555 1_555
C2 C3 1_555 1_555
C3 H1 1_555 1_555
C4 C3 1_555 1_555
O6 C7 1_555 1_555
C7 C4 1_555 1_555
C9 C2 1_555 1_555
Co4 O1 1_555 1_555
O9 Co4 1_555 1_555
O10 C10 1_555 1_555
C10 O9 1_555 1_555
Co6 O3 1_555 1_555
Co7 O2 1_555 1_555
Co8 O2 1_555 1_555
O12 Co4 1_555 1_555
O6 Co8 1_555 1_555
O8_2 C6_2 1_555 1_555
C6_2 O7_2 1_555 1_555
H2_2 C8_2 1_555 1_555
Co4_2 O8_2 1_555 1_555
O1_2 C2_2 1_555 1_555
O2_2 C1_2 1_555 1_555
O3_2 C1_2 1_555 1_555
C1_2 C4_2 1_555 1_555
C2_2 C3_2 1_555 1_555
C3_2 H1_2 1_555 1_555
C4_2 C3_2 1_555 1_555
O6_2 C7_2 1_555 1_555
C7_2 C4_2 1_555 1_555
C9_2 C2_2 1_555 1_555
Co4_2 O1_2 1_555 1_555
O9_2 Co4_2 1_555 1_555
O10_2 C10_2 1_555 1_555
C10_2 O9_2 1_555 1_555
Co6_2 O3_2 1_555 1_555
Co8_2 O2_2 1_555 1_555
O12_2 Co4_2 1_555 1_555
O6_2 Co8_2 1_555 1_555
Co3_2 O11_2 1_555 1_555
O4_2 Co1_2 1_555 1_555
C5_2 O4_2 1_555 1_555
O14_2 Co1_2 1_555 1_555
O15_2 Co1_2 1_555 1_555
O8_3 C6_3 1_555 1_555
C6_3 O7_3 1_555 1_555
H2_3 C8_3 1_555 1_555
Co3_3 O7_3 1_555 1_555
Co4_3 O8_3 1_555 1_555
Co3_3 O11_3 1_555 1_555
Co1_3 O1_3 1_555 1_555
O1_3 C2_3 1_555 1_555
O2_3 C1_3 1_555 1_555
O3_3 C1_3 1_555 1_555
C1_3 C4_3 1_555 1_555
C2_3 C3_3 1_555 1_555
C3_3 H1_3 1_555 1_555
C4_3 C3_3 1_555 1_555
O4_3 Co1_3 1_555 1_555
C5_3 O4_3 1_555 1_555
O6_3 C7_3 1_555 1_555
C7_3 C4_3 1_555 1_555
C9_3 C2_3 1_555 1_555
Co4_3 O1_3 1_555 1_555
O9_3 Co4_3 1_555 1_555
O10_3 C10_3 1_555 1_555
C10_3 O9_3 1_555 1_555
Co6_3 O3_3 1_555 1_555
Co8_3 O2_3 1_555 1_555
O12_3 Co4_3 1_555 1_555
O13_3 Co4_3 1_555 1_555
O14_3 Co1_3 1_555 1_555
O15_3 Co1_3 1_555 1_555
O6_3 Co8_3 1_555 1_555
Co4_3 O14_3 1_555 1_555
O11_3 C2_4 1_555 1_555
O4_4 Co3_3 1_555 1_555
O5_4 C5_4 1_555 1_555
C5_4 O4_4 1_555 1_555
O6_4 C7_4 1_555 1_555
O13_3 Co3_3 1_555 1_555
O15_3 C6_4 1_555 1_555
C6_4 O13_3 1_555 1_555
C7_4 C4_4 1_555 1_555
C8_4 C7_4 1_555 1_555
H2_4 C8_4 1_555 1_555
C9_4 C2_4 1_555 1_555
Co7_2 O6_4 1_555 1_555
O12_3 Co3_3 1_555 1_555
C6_4 C9_4 1_555 1_555
C8_4 C9_4 1_555 1_555
O2_4 C1_4 1_555 1_555
O3_4 C1_4 1_555 1_555
C3_4 H1_4 1_555 1_555
Co7_2 O3_4 1_555 1_555
O11 C2_5 1_555 1_555
O4_5 Co3 1_555 1_555
O5_5 C5_5 1_555 1_555
C5_5 O4_5 1_555 1_555
O6_5 C7_5 1_555 1_555
O13 Co3 1_555 1_555
O15 C6_5 1_555 1_555
C6_5 O13 1_555 1_555
C7_5 C4_5 1_555 1_555
C8_5 C7_5 1_555 1_555
H2_5 C8_5 1_555 1_555
C9_5 C2_5 1_555 1_555
Co7_3 O6_5 1_555 1_555
C6_5 C9_5 1_555 1_555
C8_5 C9_5 1_555 1_555
O2_5 C1_5 1_555 1_555
O3_5 C1_5 1_555 1_555
C3_5 H1_5 1_555 1_555
Co7_3 O3_5 1_555 1_555
O11_2 C2_6 1_555 1_555
O4_6 Co3_2 1_555 1_555
O5_6 C5_6 1_555 1_555
C5_6 O4_6 1_555 1_555
O6_6 C7_6 1_555 1_555
O13_2 Co3_2 1_555 1_555
O15_2 C6_6 1_555 1_555
C6_6 O13_2 1_555 1_555
C7_6 C4_6 1_555 1_555
C8_6 C7_6 1_555 1_555
H2_6 C8_6 1_555 1_555
C9_6 C2_6 1_555 1_555
Co7 O6_6 1_555 1_555
O6_6 Co6 1_555 1_555
C6_6 C9_6 1_555 1_555
C8_6 C9_6 1_555 1_555
O2_6 C1_6 1_555 1_555
O3_6 C1_6 1_555 1_555
C3_6 H1_6 1_555 1_555
Co7 O3_6 1_555 1_555
Co8 O2_6 1_555 1_555
O12_2 C2_7 1_555 1_555
O2_7 C1_7 1_555 1_555
O3_7 C1_7 1_555 1_555
C1_7 C4_7 1_555 1_555
C2_7 C3_7 1_555 1_555
C3_7 H1_7 1_555 1_555
C4_7 C3_7 1_555 1_555
Co6_3 O2_7 1_555 1_555
O6_7 C7_7 1_555 1_555
O15_6 C6_7 1_555 1_555
C6_7 O14_2 1_555 1_555
C8_7 C7_7 1_555 1_555
H2_7 C8_7 1_555 1_555
O6_7 Co7_3 1_555 1_555
C6_7 C9_7 1_555 1_555
C8_7 C9_7 1_555 1_555
O12_3 C2_8 1_555 1_555
O2_8 C1_8 1_555 1_555
O3_8 C1_8 1_555 1_555
C1_8 C4_8 1_555 1_555
C2_8 C3_8 1_555 1_555
C3_8 H1_8 1_555 1_555
C4_8 C3_8 1_555 1_555
O6_8 C7_8 1_555 1_555
O15_4 C6_8 1_555 1_555
C6_8 O14_3 1_555 1_555
C7_8 C4_8 1_555 1_555
C8_8 C7_8 1_555 1_555
H2_8 C8_8 1_555 1_555
C9_8 C2_8 1_555 1_555
Co8 O6_8 1_555 1_555
Co6 O2_8 1_555 1_555
Co7 O2_8 1_555 1_555
O6_8 Co7 1_555 1_555
C6_8 C9_8 1_555 1_555
C8_8 C9_8 1_555 1_555
O6_9 C7_9 1_555 1_555
O15_5 C6_9 1_555 1_555
C6_9 O14 1_555 1_555
C8_9 C7_9 1_555 1_555
H2_9 C8_9 1_555 1_555
O6_9 Co7_2 1_555 1_555
C6_9 C9_9 1_555 1_555
C8_9 C9_9 1_555 1_555
O12 C2_9 1_555 1_555
O2_9 C1_9 1_555 1_555
O3_9 C1_9 1_555 1_555
C1_9 C4_9 1_555 1_555
C2_9 C3_9 1_555 1_555
C3_9 H1_9 1_555 1_555
C4_9 C3_9 1_555 1_555
Co6_2 O2_9 1_555 1_555
O9_4 Co7_2 1_555 1_555
O10_4 C10_4 1_555 1_555
C10_4 O9_4 1_555 1_555
O4_7 Co6_2 1_555 1_555
C5_7 O4_7 1_555 1_555
O4_8 Co6_3 1_555 1_555
C5_8 O4_8 1_555 1_555
O9_5 Co7_3 1_555 1_555
O10_5 C10_5 1_555 1_555
C10_5 O9_5 1_555 1_555
O4_9 Co6 1_555 1_555
C5_9 O4_9 1_555 1_555
O9_6 Co7 1_555 1_555
O10_6 C10_6 1_555 1_555
C10_6 O9_6 1_555 1_555
O4_10 Co8 1_555 1_555
O5_10 C5_10 1_555 1_555
C5_10 O4_10 1_555 1_555
O4_11 Co8_2 1_555 1_555
O5_11 C5_11 1_555 1_555
C5_11 O4_11 1_555 1_555
O4_12 Co8_3 1_555 1_555
O5_12 C5_12 1_555 1_555
C5_12 O4_12 1_555 1_555

#END
