
###############################################################################
#
# This file contains modified crystal structure data generated from the
# MOF subset of the Cambridge Structural Database (CSD) v543 
# hosted by the Cambridge Crystallographic Data Centre (CCDC).
#
# This work is licensed under the Creative Commons
# Attribution-NonCommercial-ShareAlike 4.0 International License.
# To view a copy of this license, visit
# http://creativecommons.org/licenses/by-nc-sa/4.0/
# or send a letter to
# Creative Commons, PO Box 1866, Mountain View, CA 94042, USA.
#
# CIF created using the CSD Python API on 29 September 2022
# The structure has been converted into the P1 space group
# The structure has a 3D framework
# The original CSD entry ZOHQUL is in the rhombohedral crystal system
# The framework has been calculated to contain at least 10.0% void space
# The void calculation uses a probe of radius 1.32A, grid spacing 0.4
#
###############################################################################

data_ZOHQUL
_chemical_formula_moiety         '(C90 H18 Ni18 O84)n'
_symmetry_cell_setting           triclinic
_symmetry_space_group_name_H-M   'P 1'
_symmetry_Int_Tables_number      1
_space_group_name_Hall           'P 1'
loop_
_symmetry_equiv_pos_site_id
_symmetry_equiv_pos_as_xyz
1 x,y,z
_cell_length_a                   25.880(4)
_cell_length_b                   25.880(4)
_cell_length_c                   6.6950(13)
_cell_angle_alpha                90
_cell_angle_beta                 90
_cell_angle_gamma                120
_cell_volume                     3883.38
loop_
_atom_site_label
_atom_site_type_symbol
_atom_site_fract_x
_atom_site_fract_y
_atom_site_fract_z
O5 O 0.1990(16) 0.1313(12) 0.173(4)
C5 C 0.2185(13) 0.1728(9) 0.060(4)
Ni4 Ni 0.38342(3) 0.34889(4) 0.15228(10)
O11 O 0.30599(19) 0.34215(28) 0.0271(6)
Ni1 Ni 0.29881(3) 0.28325(3) 0.81895(10)
O1 O 0.3695(2) 0.36068(19) 0.6938(6)
O2 O 0.6083(2) 0.5826(2) 0.6739(5)
O3 O 0.4371(2) 0.4040(2) 0.9351(6)
C1 C 0.4196(3) 0.4032(3) 0.7584(8)
C2 C 0.4581(3) 0.4521(3) 0.6219(9)
C3 C 0.5124(3) 0.4965(3) 0.6948(9)
H1 H 0.520874 0.494960 0.831926
C4 C 0.5557(3) 0.5438(3) 0.5799(9)
O4 O 0.2248(3) 0.2126(3) 0.9537(9)
O6 O 0.6305(2) 0.63932(19) 0.3062(6)
O7 O 0.3917(2) 0.4174(2) 0.3261(5)
O8 O 0.5629(2) 0.5960(2) 0.0649(6)
C6 C 0.5804(3) 0.5968(3) 0.2416(8)
C7 C 0.5419(3) 0.5479(3) 0.3781(9)
C8 C 0.4876(3) 0.5035(3) 0.3052(9)
H2 H 0.479126 0.505040 0.168074
C9 C 0.4443(3) 0.4562(3) 0.4201(9)
Ni2 Ni 0.70119(3) 0.71675(3) 0.18105(10)
O9 O 0.7752(3) 0.7874(3) 0.0463(9)
Ni5 Ni 0.31777(4) 0.36786(3) 0.48562(10)
Ni6 Ni 0.68223(4) 0.63214(3) 0.51438(10)
Ni8 Ni 0.61658(3) 0.65111(4) 0.84772(10)
O13 O 0.6410(3) 0.7250(2) 0.0072(5)
O14 O 0.7507(2) 0.6924(3) 0.3406(5)
O15 O 0.2493(2) 0.3076(3) 0.6594(5)
O16 O 0.3590(3) 0.2750(2) 0.9928(5)
O17 O 0.3002(3) 0.2296(2) 0.6018(6)
O18 O 0.6998(3) 0.7704(2) 0.3982(6)
O10 O 0.8010(16) 0.8687(12) 0.827(4)
C10 C 0.7815(13) 0.8272(9) 0.940(4)
O12 O 0.69401(19) 0.65785(28) 0.9729(6)
O5_2 O 0.8687(12) 0.0677(20) 0.173(4)
C5_2 C 0.8272(9) 0.0457(16) 0.060(4)
Ni4_2 Ni 0.65111(4) 0.03452(5) 0.15228(10)
Ni1_2 Ni 0.71675(3) 0.01556(4) 0.81895(10)
O1_2 O 0.63932(19) 0.00882(28) 0.6938(6)
O2_2 O 0.4174(2) 0.0257(3) 0.6739(5)
O3_2 O 0.5960(2) 0.0331(3) 0.9351(6)
C1_2 C 0.5968(3) 0.0164(4) 0.7584(8)
C2_2 C 0.5479(3) 0.0060(4) 0.6219(9)
C3_2 C 0.5035(3) 0.0159(4) 0.6948(9)
H1_2 H 0.505040 0.025914 0.831926
C4_2 C 0.4562(3) 0.0119(4) 0.5799(9)
O4_2 O 0.7874(3) 0.0122(4) 0.9537(9)
Ni6_2 Ni 0.36786(3) 0.05008(5) 0.51438(10)
O14_2 O 0.3076(3) 0.0584(4) 0.3406(5)
O16_2 O 0.7250(2) 0.0841(4) 0.9928(5)
O17_2 O 0.7704(2) 0.0707(4) 0.6018(6)
O12_2 O 0.34215(28) 0.03617(34) 0.9729(6)
O11_2 O 0.65785(28) 0.96383(34) 0.0271(6)
O6_2 O 0.36068(19) 0.99118(28) 0.3062(6)
O7_2 O 0.5826(2) 0.9743(3) 0.3261(5)
O8_2 O 0.4040(2) 0.9669(3) 0.0649(6)
C6_2 C 0.4032(3) 0.9836(4) 0.2416(8)
C7_2 C 0.4521(3) 0.9940(4) 0.3781(9)
C8_2 C 0.4965(3) 0.9841(4) 0.3052(9)
H2_2 H 0.494960 0.974086 0.168074
C9_2 C 0.5438(3) 0.9881(4) 0.4201(9)
Ni2_2 Ni 0.28325(3) 0.98444(4) 0.18105(10)
O9_2 O 0.2126(3) 0.9878(4) 0.0463(9)
Ni5_2 Ni 0.63214(3) 0.94992(5) 0.48562(10)
Ni8_2 Ni 0.34889(4) 0.96548(5) 0.84772(10)
O13_2 O 0.2750(2) 0.9159(4) 0.0072(5)
O15_2 O 0.6924(3) 0.9416(4) 0.6594(5)
O18_2 O 0.2296(2) 0.9293(4) 0.3982(6)
O10_2 O 0.1313(12) 0.9323(20) 0.827(4)
C10_2 C 0.1728(9) 0.9543(16) 0.940(4)
O11_3 O 0.03617(34) 0.69401(19) 0.0271(6)
O6_3 O 0.00882(28) 0.3695(2) 0.3062(6)
O7_3 O 0.0257(3) 0.6083(2) 0.3261(5)
O8_3 O 0.0331(3) 0.4371(2) 0.0649(6)
C6_3 C 0.0164(4) 0.4196(3) 0.2416(8)
C7_3 C 0.0060(4) 0.4581(3) 0.3781(9)
C8_3 C 0.0159(4) 0.5124(3) 0.3052(9)
H2_3 H 0.025914 0.520874 0.168074
C9_3 C 0.0119(4) 0.5557(3) 0.4201(9)
Ni2_3 Ni 0.01556(4) 0.29881(3) 0.18105(10)
O9_3 O 0.0122(4) 0.2248(3) 0.0463(9)
Ni5_3 Ni 0.05008(5) 0.68223(4) 0.48562(10)
Ni8_3 Ni 0.03452(5) 0.38342(3) 0.84772(10)
O13_3 O 0.0841(4) 0.3590(3) 0.0072(5)
O15_3 O 0.0584(4) 0.7507(2) 0.6594(5)
O18_3 O 0.0707(4) 0.3002(3) 0.3982(6)
O10_3 O 0.0677(20) 0.1990(16) 0.827(4)
C10_3 C 0.0457(16) 0.2185(13) 0.940(4)
O5_3 O 0.9323(20) 0.8010(16) 0.173(4)
C5_3 C 0.9543(16) 0.7815(13) 0.060(4)
Ni4_3 Ni 0.96548(5) 0.61658(3) 0.15228(10)
Ni1_3 Ni 0.98444(4) 0.70119(3) 0.81895(10)
O1_3 O 0.99118(28) 0.6305(2) 0.6938(6)
O2_3 O 0.9743(3) 0.3917(2) 0.6739(5)
O3_3 O 0.9669(3) 0.5629(2) 0.9351(6)
C1_3 C 0.9836(4) 0.5804(3) 0.7584(8)
C2_3 C 0.9940(4) 0.5419(3) 0.6219(9)
C3_3 C 0.9841(4) 0.4876(3) 0.6948(9)
H1_3 H 0.974086 0.479126 0.831926
C4_3 C 0.9881(4) 0.4443(3) 0.5799(9)
O4_3 O 0.9878(4) 0.7752(3) 0.9537(9)
Ni6_3 Ni 0.94992(5) 0.31777(4) 0.51438(10)
O14_3 O 0.9416(4) 0.2493(2) 0.3406(5)
O16_3 O 0.9159(4) 0.6410(3) 0.9928(5)
O17_3 O 0.9293(4) 0.6998(3) 0.6018(6)
O12_3 O 0.96383(34) 0.30599(19) 0.9729(6)
O9_4 O 0.4419(3) 0.1207(3) 0.3796(9)
O10_4 O 0.4677(16) 0.2020(12) 0.160(4)
C10_4 C 0.4482(13) 0.1605(9) 0.273(4)
O18_4 O 0.3664(3) 0.1038(2) 0.7316(6)
O3_4 O 0.1038(2) 0.7373(2) 0.2684(6)
C1_4 C 0.0863(3) 0.7365(3) 0.0917(8)
C3_4 C 0.1791(3) 0.8298(3) 0.0281(9)
H1_4 H 0.187541 0.828293 0.165259
C2_4 C 0.1248(3) 0.7854(3) 0.9552(9)
C4_4 C 0.2224(3) 0.8771(3) 0.9132(9)
O6_4 O 0.2972(2) 0.97265(19) 0.6395(6)
C6_4 C 0.2471(3) 0.9301(3) 0.5749(8)
C7_4 C 0.2086(3) 0.8812(3) 0.7114(9)
C8_4 C 0.1543(3) 0.8368(3) 0.6385(9)
H2_4 H 0.145793 0.838373 0.501407
C9_4 C 0.1110(3) 0.7895(3) 0.7534(9)
O4_4 O 0.8915(3) 0.5459(3) 0.2870(9)
O5_4 O 0.8657(16) 0.4646(12) 0.506(4)
C5_4 C 0.8852(13) 0.5061(9) 0.393(4)
O11_4 O 0.97265(19) 0.67549(28) 0.3605(6)
O3_5 O 0.2627(2) 0.3664(3) 0.2684(6)
C1_5 C 0.2635(3) 0.3497(4) 0.0917(8)
C3_5 C 0.1702(3) 0.3492(4) 0.0281(9)
H1_5 H 0.171707 0.359247 0.165259
O4_5 O 0.4541(3) 0.3455(4) 0.2870(9)
O5_5 O 0.5354(12) 0.4010(20) 0.506(4)
C5_5 C 0.4939(9) 0.3790(16) 0.393(4)
O11_5 O 0.32451(28) 0.29717(34) 0.3605(6)
C2_5 C 0.2146(3) 0.3393(4) 0.9552(9)
C4_5 C 0.1229(3) 0.3452(4) 0.9132(9)
O6_5 O 0.02735(19) 0.32451(28) 0.6395(6)
C6_5 C 0.0699(3) 0.3169(4) 0.5749(8)
C7_5 C 0.1188(3) 0.3273(4) 0.7114(9)
C8_5 C 0.1632(3) 0.3174(4) 0.6385(9)
H2_5 H 0.161627 0.307419 0.501407
C9_5 C 0.2105(3) 0.3214(4) 0.7534(9)
O9_5 O 0.8793(3) 0.3211(4) 0.3796(9)
O10_5 O 0.7980(12) 0.2656(20) 0.160(4)
C10_5 C 0.8395(9) 0.2876(16) 0.273(4)
O18_5 O 0.8962(2) 0.2627(4) 0.7316(6)
O4_6 O 0.6545(4) 0.1085(3) 0.2870(9)
O5_6 O 0.5990(20) 0.1343(16) 0.506(4)
C5_6 C 0.6210(16) 0.1148(13) 0.393(4)
O11_6 O 0.70283(34) 0.02735(19) 0.3605(6)
O3_6 O 0.6336(3) 0.8962(2) 0.2684(6)
C1_6 C 0.6503(4) 0.9137(3) 0.0917(8)
C3_6 C 0.6508(4) 0.8209(3) 0.0281(9)
H1_6 H 0.640753 0.812459 0.165259
C2_6 C 0.6607(4) 0.8752(3) 0.9552(9)
C4_6 C 0.6548(4) 0.7776(3) 0.9132(9)
O6_6 O 0.67549(28) 0.7028(2) 0.6395(6)
C6_6 C 0.6831(4) 0.7529(3) 0.5749(8)
C7_6 C 0.6727(4) 0.7914(3) 0.7114(9)
C8_6 C 0.6826(4) 0.8457(3) 0.6385(9)
H2_6 H 0.692581 0.854207 0.501407
C9_6 C 0.6786(4) 0.8890(3) 0.7534(9)
O9_6 O 0.6789(4) 0.5581(3) 0.3796(9)
O10_6 O 0.7344(20) 0.5323(16) 0.160(4)
C10_6 C 0.7124(16) 0.5518(13) 0.273(4)
O18_6 O 0.7373(4) 0.6336(3) 0.7316(6)
O9_7 O 0.1085(3) 0.4541(3) 0.7130(9)
O10_7 O 0.1343(16) 0.5354(12) 0.494(4)
C10_7 C 0.1148(13) 0.4939(9) 0.607(4)
C1_7 C 0.7529(3) 0.0699(3) 0.4251(8)
C2_7 C 0.7914(3) 0.1188(3) 0.2886(9)
C3_7 C 0.8457(3) 0.1632(3) 0.3615(9)
H1_7 H 0.854207 0.161627 0.498593
C4_7 C 0.8890(3) 0.2105(3) 0.2466(9)
C7_7 C 0.8752(3) 0.2146(3) 0.0448(9)
C9_7 C 0.7776(3) 0.1229(3) 0.0868(9)
C6_7 C 0.9137(3) 0.2635(3) 0.9083(8)
C8_7 C 0.8209(3) 0.1702(3) 0.9719(9)
H2_7 H 0.812459 0.171707 0.834741
O4_7 O 0.5581(3) 0.8793(3) 0.6204(9)
O5_7 O 0.5323(16) 0.7980(12) 0.840(4)
C5_7 C 0.5518(13) 0.8395(9) 0.727(4)
O4_8 O 0.1207(3) 0.6789(4) 0.6204(9)
O5_8 O 0.2020(12) 0.7344(20) 0.840(4)
C5_8 C 0.1605(9) 0.7124(16) 0.727(4)
C1_8 C 0.9301(3) 0.6831(4) 0.4251(8)
C2_8 C 0.8812(3) 0.6727(4) 0.2886(9)
C3_8 C 0.8368(3) 0.6826(4) 0.3615(9)
H1_8 H 0.838373 0.692581 0.498593
C4_8 C 0.7895(3) 0.6786(4) 0.2466(9)
C7_8 C 0.7854(3) 0.6607(4) 0.0448(9)
C9_8 C 0.8771(3) 0.6548(4) 0.0868(9)
C6_8 C 0.7365(3) 0.6503(4) 0.9083(8)
C8_8 C 0.8298(3) 0.6508(4) 0.9719(9)
H2_8 H 0.828293 0.640753 0.834741
O9_8 O 0.5459(3) 0.6545(4) 0.7130(9)
O10_8 O 0.4646(12) 0.5990(20) 0.494(4)
C10_8 C 0.5061(9) 0.6210(16) 0.607(4)
C1_9 C 0.3169(4) 0.2471(3) 0.4251(8)
C2_9 C 0.3273(4) 0.2086(3) 0.2886(9)
C3_9 C 0.3174(4) 0.1543(3) 0.3615(9)
H1_9 H 0.307419 0.145793 0.498593
C4_9 C 0.3214(4) 0.1110(3) 0.2466(9)
O4_9 O 0.3211(4) 0.4419(3) 0.6204(9)
O5_9 O 0.2656(20) 0.4677(16) 0.840(4)
C5_9 C 0.2876(16) 0.4482(13) 0.727(4)
C7_9 C 0.3393(4) 0.1248(3) 0.0448(9)
C9_9 C 0.3452(4) 0.2224(3) 0.0868(9)
C6_9 C 0.3497(4) 0.0863(3) 0.9083(8)
C8_9 C 0.3492(4) 0.1791(3) 0.9719(9)
H2_9 H 0.359247 0.187541 0.834741
O9_9 O 0.3455(4) 0.8915(3) 0.7130(9)
O10_9 O 0.4010(20) 0.8657(16) 0.494(4)
C10_9 C 0.3790(16) 0.8852(13) 0.607(4)
loop_
_geom_bond_atom_site_label_1
_geom_bond_atom_site_label_2
_geom_bond_site_symmetry_1
_geom_bond_site_symmetry_2
O5 C5 1_555 1_555
Ni4 O11 1_555 1_555
Ni1 O1 1_555 1_555
O1 C1 1_555 1_555
O2 C4 1_555 1_555
O3 C1 1_555 1_555
C1 C2 1_555 1_555
C2 C3 1_555 1_555
C3 H1 1_555 1_555
C4 C3 1_555 1_555
O4 Ni1 1_555 1_555
O6 C6 1_555 1_555
O7 C9 1_555 1_555
O8 C6 1_555 1_555
C6 C7 1_555 1_555
C7 C4 1_555 1_555
C8 C7 1_555 1_555
H2 C8 1_555 1_555
C9 C2 1_555 1_555
Ni2 O6 1_555 1_555
O9 Ni2 1_555 1_555
Ni4 O7 1_555 1_555
Ni5 O1 1_555 1_555
Ni6 O2 1_555 1_555
Ni8 O2 1_555 1_555
O13 Ni2 1_555 1_555
O14 Ni2 1_555 1_555
O15 Ni1 1_555 1_555
O16 Ni1 1_555 1_555
O17 Ni1 1_555 1_555
O18 Ni2 1_555 1_555
O6 Ni6 1_555 1_555
O7 Ni5 1_555 1_555
C8 C9 1_555 1_555
Ni5 O15 1_555 1_555
Ni6 O14 1_555 1_555
O10 C10 1_555 1_555
Ni8 O12 1_555 1_555
O5_2 C5_2 1_555 1_555
Ni1_2 O1_2 1_555 1_555
O1_2 C1_2 1_555 1_555
O2_2 C4_2 1_555 1_555
O3_2 C1_2 1_555 1_555
C1_2 C2_2 1_555 1_555
C2_2 C3_2 1_555 1_555
C3_2 H1_2 1_555 1_555
C4_2 C3_2 1_555 1_555
O4_2 Ni1_2 1_555 1_555
Ni6_2 O2_2 1_555 1_555
O16_2 Ni1_2 1_555 1_555
O17_2 Ni1_2 1_555 1_555
Ni6_2 O14_2 1_555 1_555
O6_2 C6_2 1_555 1_555
O7_2 C9_2 1_555 1_555
O8_2 C6_2 1_555 1_555
C6_2 C7_2 1_555 1_555
C8_2 C7_2 1_555 1_555
H2_2 C8_2 1_555 1_555
Ni2_2 O6_2 1_555 1_555
O9_2 Ni2_2 1_555 1_555
O13_2 Ni2_2 1_555 1_555
O18_2 Ni2_2 1_555 1_555
O7_2 Ni5_2 1_555 1_555
C8_2 C9_2 1_555 1_555
Ni5_2 O15_2 1_555 1_555
O10_2 C10_2 1_555 1_555
O6_3 C6_3 1_555 1_555
O7_3 C9_3 1_555 1_555
O8_3 C6_3 1_555 1_555
C6_3 C7_3 1_555 1_555
C8_3 C7_3 1_555 1_555
H2_3 C8_3 1_555 1_555
Ni2_3 O6_3 1_555 1_555
O9_3 Ni2_3 1_555 1_555
O13_3 Ni2_3 1_555 1_555
O18_3 Ni2_3 1_555 1_555
O7_3 Ni5_3 1_555 1_555
C8_3 C9_3 1_555 1_555
Ni5_3 O15_3 1_555 1_555
O10_3 C10_3 1_555 1_555
O5_3 C5_3 1_555 1_555
Ni1_3 O1_3 1_555 1_555
O1_3 C1_3 1_555 1_555
O2_3 C4_3 1_555 1_555
O3_3 C1_3 1_555 1_555
C1_3 C2_3 1_555 1_555
C2_3 C3_3 1_555 1_555
C3_3 H1_3 1_555 1_555
C4_3 C3_3 1_555 1_555
O4_3 Ni1_3 1_555 1_555
Ni6_3 O2_3 1_555 1_555
O16_3 Ni1_3 1_555 1_555
O17_3 Ni1_3 1_555 1_555
Ni6_3 O14_3 1_555 1_555
O9_4 Ni6_2 1_555 1_555
O10_4 C10_4 1_555 1_555
C10_4 O9_4 1_555 1_555
O18_4 Ni6_2 1_555 1_555
O11_3 C1_4 1_555 1_555
O3_4 C1_4 1_555 1_555
C3_4 H1_4 1_555 1_555
Ni5_3 O3_4 1_555 1_555
O6_4 C6_4 1_555 1_555
O15_3 C9_4 1_555 1_555
O18_2 C6_4 1_555 1_555
C6_4 C7_4 1_555 1_555
C7_4 C4_4 1_555 1_555
C8_4 C7_4 1_555 1_555
H2_4 C8_4 1_555 1_555
C9_4 C2_4 1_555 1_555
O6_4 Ni8_2 1_555 1_555
C8_4 C9_4 1_555 1_555
O4_4 Ni4_3 1_555 1_555
O5_4 C5_4 1_555 1_555
C5_4 O4_4 1_555 1_555
O11_4 Ni4_3 1_555 1_555
O11 C1_5 1_555 1_555
O3_5 C1_5 1_555 1_555
C3_5 H1_5 1_555 1_555
O4_5 Ni4 1_555 1_555
O5_5 C5_5 1_555 1_555
C5_5 O4_5 1_555 1_555
Ni5 O3_5 1_555 1_555
O11_5 Ni4 1_555 1_555
Ni5 O11_5 1_555 1_555
O6_5 C6_5 1_555 1_555
O15 C9_5 1_555 1_555
O18_3 C6_5 1_555 1_555
C6_5 C7_5 1_555 1_555
C7_5 C4_5 1_555 1_555
C8_5 C7_5 1_555 1_555
H2_5 C8_5 1_555 1_555
C9_5 C2_5 1_555 1_555
O6_5 Ni8_3 1_555 1_555
C8_5 C9_5 1_555 1_555
O9_5 Ni6_3 1_555 1_555
O10_5 C10_5 1_555 1_555
C10_5 O9_5 1_555 1_555
O18_5 Ni6_3 1_555 1_555
O4_6 Ni4_2 1_555 1_555
O5_6 C5_6 1_555 1_555
C5_6 O4_6 1_555 1_555
O11_6 Ni4_2 1_555 1_555
O11_2 C1_6 1_555 1_555
O3_6 C1_6 1_555 1_555
C3_6 H1_6 1_555 1_555
Ni5_2 O3_6 1_555 1_555
O6_6 C6_6 1_555 1_555
O15_2 C9_6 1_555 1_555
O18 C6_6 1_555 1_555
C6_6 C7_6 1_555 1_555
C7_6 C4_6 1_555 1_555
C8_6 C7_6 1_555 1_555
H2_6 C8_6 1_555 1_555
C9_6 C2_6 1_555 1_555
Ni6 O6_6 1_555 1_555
O9_6 Ni6 1_555 1_555
O10_6 C10_6 1_555 1_555
C10_6 O9_6 1_555 1_555
O18_6 Ni6 1_555 1_555
O6_6 Ni8 1_555 1_555
C8_6 C9_6 1_555 1_555
O9_7 Ni8_3 1_555 1_555
O10_7 C10_7 1_555 1_555
C10_7 O9_7 1_555 1_555
O11_6 C1_7 1_555 1_555
O14_3 C4_7 1_555 1_555
O17_2 C1_7 1_555 1_555
C1_7 C2_7 1_555 1_555
C2_7 C3_7 1_555 1_555
C3_7 H1_7 1_555 1_555
C4_7 C3_7 1_555 1_555
C7_7 C4_7 1_555 1_555
C9_7 C2_7 1_555 1_555
O12_3 C6_7 1_555 1_555
O18_5 C6_7 1_555 1_555
H2_7 C8_7 1_555 1_555
O4_7 Ni5_2 1_555 1_555
O5_7 C5_7 1_555 1_555
C5_7 O4_7 1_555 1_555
O4_8 Ni5_3 1_555 1_555
O5_8 C5_8 1_555 1_555
C5_8 O4_8 1_555 1_555
O11_4 C1_8 1_555 1_555
O14 C4_8 1_555 1_555
O17_3 C1_8 1_555 1_555
C1_8 C2_8 1_555 1_555
C2_8 C3_8 1_555 1_555
C3_8 H1_8 1_555 1_555
C4_8 C3_8 1_555 1_555
C7_8 C4_8 1_555 1_555
C9_8 C2_8 1_555 1_555
O12 C6_8 1_555 1_555
O18_6 C6_8 1_555 1_555
H2_8 C8_8 1_555 1_555
O9_8 Ni8 1_555 1_555
O10_8 C10_8 1_555 1_555
C10_8 O9_8 1_555 1_555
O11_5 C1_9 1_555 1_555
O14_2 C4_9 1_555 1_555
O17 C1_9 1_555 1_555
C1_9 C2_9 1_555 1_555
C2_9 C3_9 1_555 1_555
C3_9 H1_9 1_555 1_555
C4_9 C3_9 1_555 1_555
O4_9 Ni5 1_555 1_555
O5_9 C5_9 1_555 1_555
C5_9 O4_9 1_555 1_555
C7_9 C4_9 1_555 1_555
C9_9 C2_9 1_555 1_555
O12_2 C6_9 1_555 1_555
O18_4 C6_9 1_555 1_555
H2_9 C8_9 1_555 1_555
O9_9 Ni8_2 1_555 1_555
O10_9 C10_9 1_555 1_555
C10_9 O9_9 1_555 1_555

#END
