
###############################################################################
#
# This file contains modified crystal structure data generated from the
# MOF subset of the Cambridge Structural Database (CSD) v543 
# hosted by the Cambridge Crystallographic Data Centre (CCDC).
#
# This work is licensed under the Creative Commons
# Attribution-NonCommercial-ShareAlike 4.0 International License.
# To view a copy of this license, visit
# http://creativecommons.org/licenses/by-nc-sa/4.0/
# or send a letter to
# Creative Commons, PO Box 1866, Mountain View, CA 94042, USA.
#
# CIF created using the CSD Python API on 29 September 2022
# The structure has been converted into the P1 space group
# The structure has a 3D framework
# The original CSD entry ZOHQIZ is in the rhombohedral crystal system
# The framework has been calculated to contain at least 10.0% void space
# The void calculation uses a probe of radius 1.32A, grid spacing 0.4
#
###############################################################################

data_ZOHQIZ
_chemical_formula_moiety         '(C90 H90 Ni18 O69)n'
_symmetry_cell_setting           triclinic
_symmetry_space_group_name_H-M   'P 1'
_symmetry_Int_Tables_number      1
_space_group_name_Hall           'P 1'
loop_
_symmetry_equiv_pos_site_id
_symmetry_equiv_pos_as_xyz
1 x,y,z
_cell_length_a                   25.899(4)
_cell_length_b                   25.899(4)
_cell_length_c                   6.6350(13)
_cell_angle_alpha                90
_cell_angle_beta                 90
_cell_angle_gamma                120
_cell_volume                     3854.23
loop_
_atom_site_label
_atom_site_type_symbol
_atom_site_fract_x
_atom_site_fract_y
_atom_site_fract_z
Ni8 Ni 0.65067(2) 0.03464(2) 0.15504(6)
Ni7 Ni 0.71730(3) 0.01599(2) 0.82170(6)
O10 O 0.70259(11) 0.02853(16) 0.3654(4)
O11 O 0.63814(16) 0.00739(11) 0.6987(4)
O5 O 0.65927(11) 0.96408(11) 0.0321(4)
O6 O 0.63320(11) 0.89556(11) 0.2710(4)
C6 C 0.64827(15) 0.81948(15) 0.0290(5)
H6 H 0.635602 0.810236 0.165100
C7 C 0.65077(14) 0.91392(14) 0.0953(5)
O7 O 0.63937(10) 0.72483(10) 0.0069(3)
Ni5 Ni 0.70130(2) 0.71730(3) 0.17830(6)
Ni6 Ni 0.63203(2) 0.94937(3) 0.48837(6)
Ni1 Ni 0.68266(2) 0.63203(2) 0.51163(6)
O1 O 0.67406(11) 0.70259(11) 0.6346(4)
O2 O 0.70013(11) 0.77111(11) 0.3957(4)
C1 C 0.68506(15) 0.84719(15) 0.6377(5)
H1 H 0.697731 0.856431 0.501567
C2 C 0.68256(14) 0.75275(14) 0.5714(5)
C3 C 0.67243(15) 0.79149(14) 0.7123(5)
O3 O 0.69396(10) 0.94184(10) 0.6598(3)
C4 C 0.68018(14) 0.89007(14) 0.7513(5)
O4 O 0.67981(13) 0.55894(13) 0.3717(4)
H2 H 0.648295 0.531267 0.321599
C5 C 0.7229(4) 0.5397(3) 0.3928(12)
H3 H 0.756225 0.562447 0.300417
H4 H 0.704058 0.497117 0.360493
H5 H 0.737644 0.546276 0.531736
C8 C 0.66090(15) 0.87518(14) 0.9544(5)
C9 C 0.65315(14) 0.77660(14) 0.9154(5)
O8 O 0.55894(13) 0.87913(18) 0.6283(4)
H7 H 0.531267 0.882972 0.678401
C10 C 0.5397(3) 0.8168(5) 0.6072(12)
H8 H 0.562447 0.806222 0.699583
H9 H 0.497117 0.793059 0.639507
H10 H 0.546276 0.808632 0.468264
Ni3 Ni 0.61604(3) 0.65067(2) 0.84496(6)
O9 O 0.63074(11) 0.63814(16) 0.3013(4)
O12 O 0.73765(16) 0.63320(11) 0.7290(4)
O14 O 0.58121(14) 0.97271(10) 0.3265(3)
O15 O 0.75212(14) 0.69396(10) 0.3402(3)
O16 O 0.60851(10) 0.58121(14) 0.6735(3)
Ni1_2 Ni 0.36797(2) 0.05063(3) 0.51163(6)
O4_2 O 0.44106(13) 0.12087(18) 0.3717(4)
H2_2 H 0.468733 0.117028 0.321599
C5_2 C 0.4603(3) 0.1832(5) 0.3928(12)
H3_2 H 0.437553 0.193778 0.300417
H4_2 H 0.502883 0.206941 0.360493
H5_2 H 0.453724 0.191368 0.531736
O12_2 O 0.36680(11) 0.10444(19) 0.7290(4)
O15_2 O 0.30604(10) 0.05816(17) 0.3402(3)
O16_2 O 0.41879(14) 0.02729(17) 0.6735(3)
O5_2 O 0.03592(11) 0.69520(16) 0.0321(4)
O6_2 O 0.10444(11) 0.73765(16) 0.2710(4)
C6_2 C 0.18052(15) 0.82880(21) 0.0290(5)
H6_2 H 0.189764 0.825367 0.165100
C7_2 C 0.08608(14) 0.73686(20) 0.0953(5)
O7_2 O 0.27517(10) 0.91455(14) 0.0069(3)
Ni5_2 Ni 0.28270(3) 0.98401(4) 0.17830(6)
Ni6_2 Ni 0.05063(3) 0.68266(4) 0.48837(6)
O1_2 O 0.29741(11) 0.97147(16) 0.6346(4)
O2_2 O 0.22889(11) 0.92902(16) 0.3957(4)
C1_2 C 0.15281(15) 0.83787(21) 0.6377(5)
H1_2 H 0.143569 0.841300 0.501567
C2_2 C 0.24725(14) 0.92981(20) 0.5714(5)
C3_2 C 0.20851(14) 0.88094(21) 0.7123(5)
O3_2 O 0.05816(10) 0.75212(14) 0.6598(3)
C4_2 C 0.10993(14) 0.79011(20) 0.7513(5)
C8_2 C 0.12482(14) 0.78573(21) 0.9544(5)
C9_2 C 0.22340(14) 0.87656(20) 0.9154(5)
O8_2 O 0.12087(18) 0.67981(22) 0.6283(4)
H7_2 H 0.117028 0.648295 0.678401
C10_2 C 0.1832(5) 0.7229(6) 0.6072(12)
H8_2 H 0.193778 0.756225 0.699583
H9_2 H 0.206941 0.704058 0.639507
H10_2 H 0.191368 0.737644 0.468264
Ni3_2 Ni 0.34933(2) 0.96536(4) 0.84496(6)
O9_2 O 0.36186(16) 0.99261(19) 0.3013(4)
O14_2 O 0.02729(10) 0.60851(17) 0.3265(3)
Ni8_2 Ni 0.96536(2) 0.61604(3) 0.15504(6)
Ni7_2 Ni 0.98401(2) 0.70130(4) 0.82170(6)
O10_2 O 0.97147(16) 0.67406(19) 0.3654(4)
O11_2 O 0.99261(11) 0.63074(19) 0.6987(4)
O5_3 O 0.30480(16) 0.34073(11) 0.0321(4)
O6_3 O 0.26235(16) 0.36680(11) 0.2710(4)
C6_3 C 0.17120(21) 0.35173(15) 0.0290(5)
H6_3 H 0.174633 0.364398 0.165100
C7_3 C 0.26314(20) 0.34923(14) 0.0953(5)
O7_3 O 0.08545(14) 0.36063(10) 0.0069(3)
Ni5_3 Ni 0.01599(4) 0.29870(2) 0.17830(6)
Ni6_3 Ni 0.31734(4) 0.36797(2) 0.48837(6)
Ni8_3 Ni 0.38396(3) 0.34933(2) 0.15504(6)
O1_3 O 0.02853(16) 0.32594(11) 0.6346(4)
O2_3 O 0.07098(16) 0.29987(11) 0.3957(4)
C1_3 C 0.16213(21) 0.31494(15) 0.6377(5)
H1_3 H 0.158700 0.302269 0.501567
C2_3 C 0.07019(20) 0.31744(14) 0.5714(5)
C3_3 C 0.11906(21) 0.32757(15) 0.7123(5)
O3_3 O 0.24788(14) 0.30604(10) 0.6598(3)
C4_3 C 0.20989(20) 0.31982(14) 0.7513(5)
C8_3 C 0.21427(21) 0.33910(15) 0.9544(5)
C9_3 C 0.12344(20) 0.34685(14) 0.9154(5)
O8_3 O 0.32019(22) 0.44106(13) 0.6283(4)
H7_3 H 0.351705 0.468733 0.678401
C10_3 C 0.2771(6) 0.4603(3) 0.6072(12)
H8_3 H 0.243775 0.437553 0.699583
H9_3 H 0.295942 0.502883 0.639507
H10_3 H 0.262356 0.453724 0.468264
Ni3_3 Ni 0.03464(4) 0.38396(3) 0.84496(6)
Ni7_3 Ni 0.29870(4) 0.28270(3) 0.82170(6)
O9_3 O 0.00739(19) 0.36926(11) 0.3013(4)
O10_3 O 0.32594(19) 0.29741(11) 0.3654(4)
O11_3 O 0.36926(19) 0.36186(16) 0.6987(4)
O14_3 O 0.39149(17) 0.41879(14) 0.3265(3)
Ni1_3 Ni 0.94937(3) 0.31734(2) 0.51163(6)
O4_3 O 0.87913(18) 0.32019(13) 0.3717(4)
H2_3 H 0.882972 0.351705 0.321599
C5_3 C 0.8168(5) 0.2771(4) 0.3928(12)
H3_3 H 0.806222 0.243775 0.300417
H4_3 H 0.793059 0.295942 0.360493
H5_3 H 0.808632 0.262356 0.531736
O12_3 O 0.89556(19) 0.26235(16) 0.7290(4)
O15_3 O 0.94184(17) 0.24788(14) 0.3402(3)
O16_3 O 0.97271(17) 0.39149(10) 0.6735(3)
C3_4 C 0.33910(15) 0.12482(14) 0.0456(5)
C4_4 C 0.34685(14) 0.22340(14) 0.0846(5)
O6_4 O 0.29987(11) 0.22889(11) 0.6043(4)
C6_4 C 0.31494(15) 0.15281(15) 0.3623(5)
H6_4 H 0.302269 0.143569 0.498433
C7_4 C 0.31744(14) 0.24725(14) 0.4286(5)
C8_4 C 0.32757(15) 0.20851(14) 0.2877(5)
C9_4 C 0.31982(14) 0.10993(14) 0.2487(5)
H7_4 H 0.197934 0.216305 0.011734
H8_4 H 0.229114 0.139555 0.032916
O1_4 O 0.34073(11) 0.03592(11) 0.9679(4)
C1_4 C 0.35173(15) 0.18052(15) 0.9710(5)
H1_4 H 0.364398 0.189764 0.834900
C2_4 C 0.34923(14) 0.08608(14) 0.9047(5)
O3_4 O 0.36063(10) 0.27517(10) 0.9931(3)
O8_4 O 0.22561(13) 0.21246(18) 0.9616(4)
C10_4 C 0.2064(3) 0.1501(5) 0.9405(12)
H9_4 H 0.163784 0.126392 0.972840
H10_4 H 0.212943 0.141965 0.801597
O12_4 O 0.40431(16) 0.96654(11) 0.0624(4)
O4_4 O 0.34648(13) 0.89227(13) 0.7050(4)
H2_4 H 0.314962 0.864600 0.654932
C5_4 C 0.3896(4) 0.8730(3) 0.7261(12)
H3_4 H 0.422892 0.895780 0.633750
H4_4 H 0.370725 0.830450 0.693826
H5_4 H 0.404311 0.879609 0.865069
O12_5 O 0.03346(11) 0.43778(19) 0.0624(4)
O4_5 O 0.10773(13) 0.45420(18) 0.7050(4)
H2_5 H 0.135400 0.450361 0.654932
C5_5 C 0.1270(3) 0.5165(5) 0.7261(12)
H3_5 H 0.104220 0.527111 0.633750
H4_5 H 0.169550 0.540274 0.693826
H5_5 H 0.120391 0.524701 0.865069
C3_5 C 0.87518(14) 0.21427(21) 0.0456(5)
C4_5 C 0.77660(14) 0.12344(20) 0.0846(5)
O6_5 O 0.77111(11) 0.07098(16) 0.6043(4)
C6_5 C 0.84719(15) 0.16213(21) 0.3623(5)
H6_5 H 0.856431 0.158700 0.498433
C7_5 C 0.75275(14) 0.07019(20) 0.4286(5)
C8_5 C 0.79149(14) 0.11906(21) 0.2877(5)
C9_5 C 0.89007(14) 0.20989(20) 0.2487(5)
H8_5 H 0.860445 0.089558 0.032916
O1_5 O 0.96408(11) 0.30480(16) 0.9679(4)
C1_5 C 0.81948(15) 0.17120(21) 0.9710(5)
H1_5 H 0.810236 0.174633 0.834900
C2_5 C 0.91392(14) 0.26314(20) 0.9047(5)
O3_5 O 0.72483(10) 0.08545(14) 0.9931(3)
O8_5 O 0.78754(18) 0.01314(22) 0.9616(4)
C10_5 C 0.8499(5) 0.0562(6) 0.9405(12)
H9_5 H 0.873608 0.037391 0.972840
H10_5 H 0.858035 0.070977 0.801597
H7_5 H 0.783695 0.981628 0.011734
H7_6 H 0.018372 0.802066 0.011734
C3_6 C 0.78573(21) 0.66090(15) 0.0456(5)
C4_6 C 0.87656(20) 0.65315(14) 0.0846(5)
O6_6 O 0.92902(16) 0.70013(11) 0.6043(4)
C6_6 C 0.83787(21) 0.68506(15) 0.3623(5)
H6_6 H 0.841300 0.697731 0.498433
C7_6 C 0.92981(20) 0.68256(14) 0.4286(5)
C8_6 C 0.88094(21) 0.67243(15) 0.2877(5)
C9_6 C 0.79011(20) 0.68018(14) 0.2487(5)
H8_6 H 0.910442 0.770886 0.032916
O12_6 O 0.56222(19) 0.59569(16) 0.0624(4)
O1_6 O 0.69520(16) 0.65927(11) 0.9679(4)
C1_6 C 0.82880(21) 0.64827(15) 0.9710(5)
H1_6 H 0.825367 0.635602 0.834900
C2_6 C 0.73686(20) 0.65077(14) 0.9047(5)
O3_6 O 0.91455(14) 0.63937(10) 0.9931(3)
O4_6 O 0.54580(18) 0.65352(13) 0.7050(4)
H2_6 H 0.549639 0.685038 0.654932
C5_6 C 0.4835(5) 0.6104(4) 0.7261(12)
H3_6 H 0.472889 0.577108 0.633750
H4_6 H 0.459726 0.629275 0.693826
H5_6 H 0.475299 0.595689 0.865069
O8_6 O 0.98686(22) 0.77439(13) 0.9616(4)
C10_6 C 0.9438(6) 0.7936(3) 0.9405(12)
H9_6 H 0.962609 0.836216 0.972840
H10_6 H 0.929023 0.787057 0.801597
C1_7 C 0.01839(15) 0.51386(15) 0.3044(5)
H1_7 H 0.031064 0.523098 0.168234
C2_7 C 0.01589(14) 0.41942(14) 0.2381(5)
C3_7 C 0.00576(15) 0.45816(14) 0.3790(5)
C4_7 C 0.01351(14) 0.55674(14) 0.4180(5)
O4_7 O 0.01314(13) 0.22561(13) 0.0384(4)
C5_7 C 0.0562(4) 0.2064(3) 0.0595(12)
H4_7 H 0.037391 0.163784 0.027160
H5_7 H 0.070977 0.212943 0.198403
H3_7 H 0.089558 0.229114 0.967084
O6_7 O 0.96654(11) 0.56222(11) 0.9376(4)
C6_7 C 0.98161(15) 0.48614(15) 0.6956(5)
H6_7 H 0.968936 0.476902 0.831766
C7_7 C 0.98411(14) 0.58058(14) 0.7619(5)
C8_7 C 0.99424(15) 0.54184(14) 0.6210(5)
C9_7 C 0.98649(14) 0.44326(14) 0.5820(5)
O8_7 O 0.89227(13) 0.54580(18) 0.2950(4)
H7_7 H 0.864600 0.549639 0.345068
C10_7 C 0.8730(3) 0.4835(5) 0.2739(12)
H8_7 H 0.895780 0.472889 0.366250
H9_7 H 0.830450 0.459726 0.306174
H10_7 H 0.879609 0.475299 0.134931
H2_7 H 0.981628 0.197934 0.988266
C1_8 C 0.48614(15) 0.50454(21) 0.3044(5)
H1_8 H 0.476902 0.507967 0.168234
C2_8 C 0.58058(14) 0.59648(20) 0.2381(5)
C3_8 C 0.54184(14) 0.54761(21) 0.3790(5)
C4_8 C 0.44326(14) 0.45678(20) 0.4180(5)
O4_8 O 0.77439(13) 0.78754(18) 0.0384(4)
C5_8 C 0.7936(3) 0.8499(5) 0.0595(12)
H4_8 H 0.836216 0.873608 0.027160
H5_8 H 0.787057 0.858035 0.198403
O6_8 O 0.43778(11) 0.40431(16) 0.9376(4)
C6_8 C 0.51386(15) 0.49546(21) 0.6956(5)
H6_8 H 0.523098 0.492033 0.831766
C7_8 C 0.41942(14) 0.40352(20) 0.7619(5)
C8_8 C 0.45816(14) 0.45239(21) 0.6210(5)
C9_8 C 0.55674(14) 0.54322(20) 0.5820(5)
O8_8 O 0.45420(18) 0.34648(22) 0.2950(4)
H7_8 H 0.450361 0.314962 0.345068
C10_8 C 0.5165(5) 0.3896(6) 0.2739(12)
H8_8 H 0.527111 0.422892 0.366250
H9_8 H 0.540274 0.370725 0.306174
H10_8 H 0.524701 0.404311 0.134931
H2_8 H 0.802066 0.783695 0.988266
H3_8 H 0.770886 0.860445 0.967084
O6_9 O 0.59569(16) 0.03346(11) 0.9376(4)
C6_9 C 0.50454(21) 0.01839(15) 0.6956(5)
H6_9 H 0.507967 0.031064 0.831766
C7_9 C 0.59648(20) 0.01589(14) 0.7619(5)
C8_9 C 0.54761(21) 0.00576(15) 0.6210(5)
C9_9 C 0.45678(20) 0.01351(14) 0.5820(5)
O8_9 O 0.65352(22) 0.10773(13) 0.2950(4)
H7_9 H 0.685038 0.135400 0.345068
C10_9 C 0.6104(6) 0.1270(3) 0.2739(12)
H8_9 H 0.577108 0.104220 0.366250
H9_9 H 0.629275 0.169550 0.306174
H10_9 H 0.595689 0.120391 0.134931
H2_9 H 0.216305 0.018372 0.988266
C1_9 C 0.49546(21) 0.98161(15) 0.3044(5)
H1_9 H 0.492033 0.968936 0.168234
C2_9 C 0.40352(20) 0.98411(14) 0.2381(5)
C3_9 C 0.45239(21) 0.99424(15) 0.3790(5)
C4_9 C 0.54322(20) 0.98649(14) 0.4180(5)
O4_9 O 0.21246(18) 0.98686(13) 0.0384(4)
C5_9 C 0.1501(5) 0.9438(4) 0.0595(12)
H4_9 H 0.126392 0.962609 0.027160
H5_9 H 0.141965 0.929023 0.198403
H3_9 H 0.139555 0.910442 0.967084
loop_
_geom_bond_atom_site_label_1
_geom_bond_atom_site_label_2
_geom_bond_site_symmetry_1
_geom_bond_site_symmetry_2
Ni7 O11 1_555 1_555
O5 C7 1_555 1_555
O6 C7 1_555 1_555
C6 H6 1_555 1_555
Ni5 O7 1_555 1_555
Ni6 O6 1_555 1_555
Ni1 O1 1_555 1_555
O1 C2 1_555 1_555
O2 C2 1_555 1_555
C1 H1 1_555 1_555
C2 C3 1_555 1_555
C3 C1 1_555 1_555
O3 C4 1_555 1_555
C4 C1 1_555 1_555
O4 Ni1 1_555 1_555
H2 O4 1_555 1_555
C5 O4 1_555 1_555
H3 C5 1_555 1_555
H4 C5 1_555 1_555
H5 C5 1_555 1_555
C8 C4 1_555 1_555
C9 C3 1_555 1_555
Ni6 O3 1_555 1_555
O8 Ni6 1_555 1_555
H7 O8 1_555 1_555
C10 O8 1_555 1_555
H8 C10 1_555 1_555
H9 C10 1_555 1_555
H10 C10 1_555 1_555
Ni3 O1 1_555 1_555
Ni5 O2 1_555 1_555
O9 Ni1 1_555 1_555
O12 Ni1 1_555 1_555
O14 Ni6 1_555 1_555
O15 Ni1 1_555 1_555
O16 Ni1 1_555 1_555
Ni3 O16 1_555 1_555
Ni5 O9 1_555 1_555
Ni5 O15 1_555 1_555
O4_2 Ni1_2 1_555 1_555
H2_2 O4_2 1_555 1_555
C5_2 O4_2 1_555 1_555
H3_2 C5_2 1_555 1_555
H4_2 C5_2 1_555 1_555
H5_2 C5_2 1_555 1_555
O12_2 Ni1_2 1_555 1_555
O15_2 Ni1_2 1_555 1_555
O16_2 Ni1_2 1_555 1_555
O5_2 C7_2 1_555 1_555
O6_2 C7_2 1_555 1_555
C6_2 H6_2 1_555 1_555
Ni5_2 O7_2 1_555 1_555
Ni6_2 O6_2 1_555 1_555
O1_2 C2_2 1_555 1_555
O2_2 C2_2 1_555 1_555
C1_2 H1_2 1_555 1_555
C2_2 C3_2 1_555 1_555
C3_2 C1_2 1_555 1_555
O3_2 C4_2 1_555 1_555
C4_2 C1_2 1_555 1_555
C8_2 C4_2 1_555 1_555
C9_2 C3_2 1_555 1_555
Ni6_2 O3_2 1_555 1_555
O8_2 Ni6_2 1_555 1_555
H7_2 O8_2 1_555 1_555
C10_2 O8_2 1_555 1_555
H8_2 C10_2 1_555 1_555
H9_2 C10_2 1_555 1_555
H10_2 C10_2 1_555 1_555
Ni3_2 O1_2 1_555 1_555
Ni5_2 O2_2 1_555 1_555
O14_2 Ni6_2 1_555 1_555
Ni5_2 O9_2 1_555 1_555
Ni7_2 O11_2 1_555 1_555
O5_3 C7_3 1_555 1_555
O6_3 C7_3 1_555 1_555
C6_3 H6_3 1_555 1_555
Ni5_3 O7_3 1_555 1_555
Ni6_3 O6_3 1_555 1_555
Ni8_3 O5_3 1_555 1_555
O1_3 C2_3 1_555 1_555
O2_3 C2_3 1_555 1_555
C1_3 H1_3 1_555 1_555
C2_3 C3_3 1_555 1_555
C3_3 C1_3 1_555 1_555
O3_3 C4_3 1_555 1_555
C4_3 C1_3 1_555 1_555
C8_3 C4_3 1_555 1_555
C9_3 C3_3 1_555 1_555
Ni6_3 O3_3 1_555 1_555
O8_3 Ni6_3 1_555 1_555
H7_3 O8_3 1_555 1_555
C10_3 O8_3 1_555 1_555
H8_3 C10_3 1_555 1_555
H9_3 C10_3 1_555 1_555
H10_3 C10_3 1_555 1_555
Ni3_3 O1_3 1_555 1_555
Ni5_3 O2_3 1_555 1_555
Ni7_3 O3_3 1_555 1_555
O10_3 Ni6_3 1_555 1_555
O11_3 Ni6_3 1_555 1_555
O14_3 Ni6_3 1_555 1_555
Ni5_3 O9_3 1_555 1_555
Ni7_3 O11_3 1_555 1_555
O4_3 Ni1_3 1_555 1_555
H2_3 O4_3 1_555 1_555
C5_3 O4_3 1_555 1_555
H3_3 C5_3 1_555 1_555
H4_3 C5_3 1_555 1_555
H5_3 C5_3 1_555 1_555
O12_3 Ni1_3 1_555 1_555
O15_3 Ni1_3 1_555 1_555
O16_3 Ni1_3 1_555 1_555
O10_3 C7_4 1_555 1_555
O6_4 C7_4 1_555 1_555
C6_4 H6_4 1_555 1_555
C7_4 C8_4 1_555 1_555
C8_4 C4_4 1_555 1_555
O15_2 C9_4 1_555 1_555
C9_4 C3_4 1_555 1_555
Ni7_3 O6_4 1_555 1_555
O10_3 Ni8_3 1_555 1_555
C6_4 C8_4 1_555 1_555
C6_4 C9_4 1_555 1_555
O1_4 C2_4 1_555 1_555
O12_2 C2_4 1_555 1_555
C1_4 H1_4 1_555 1_555
Ni7_3 O3_4 1_555 1_555
O8_4 Ni7_3 1_555 1_555
C10_4 O8_4 1_555 1_555
H9_4 C10_4 1_555 1_555
H10_4 C10_4 1_555 1_555
O4_4 Ni3_2 1_555 1_555
H2_4 O4_4 1_555 1_555
C5_4 O4_4 1_555 1_555
H3_4 C5_4 1_555 1_555
H4_4 C5_4 1_555 1_555
H5_4 C5_4 1_555 1_555
O4_5 Ni3_3 1_555 1_555
H2_5 O4_5 1_555 1_555
C5_5 O4_5 1_555 1_555
H3_5 C5_5 1_555 1_555
H4_5 C5_5 1_555 1_555
H5_5 C5_5 1_555 1_555
O10 C7_5 1_555 1_555
O6_5 C7_5 1_555 1_555
C6_5 H6_5 1_555 1_555
C7_5 C8_5 1_555 1_555
C8_5 C4_5 1_555 1_555
O15_3 C9_5 1_555 1_555
C9_5 C3_5 1_555 1_555
Ni7 O6_5 1_555 1_555
O10 Ni8 1_555 1_555
C6_5 C8_5 1_555 1_555
C6_5 C9_5 1_555 1_555
O1_5 C2_5 1_555 1_555
O12_3 C2_5 1_555 1_555
C1_5 H1_5 1_555 1_555
Ni7 O3_5 1_555 1_555
O8_5 Ni7 1_555 1_555
C10_5 O8_5 1_555 1_555
H9_5 C10_5 1_555 1_555
H10_5 C10_5 1_555 1_555
O10_2 C7_6 1_555 1_555
O6_6 C7_6 1_555 1_555
C6_6 H6_6 1_555 1_555
C7_6 C8_6 1_555 1_555
C8_6 C4_6 1_555 1_555
O15 C9_6 1_555 1_555
C9_6 C3_6 1_555 1_555
Ni7_2 O6_6 1_555 1_555
O10_2 Ni8_2 1_555 1_555
C6_6 C8_6 1_555 1_555
C6_6 C9_6 1_555 1_555
Ni3 O1_6 1_555 1_555
O1_6 C2_6 1_555 1_555
O12 C2_6 1_555 1_555
C1_6 H1_6 1_555 1_555
O4_6 Ni3 1_555 1_555
H2_6 O4_6 1_555 1_555
C5_6 O4_6 1_555 1_555
H3_6 C5_6 1_555 1_555
H4_6 C5_6 1_555 1_555
H5_6 C5_6 1_555 1_555
Ni7_2 O3_6 1_555 1_555
O8_6 Ni7_2 1_555 1_555
C10_6 O8_6 1_555 1_555
H9_6 C10_6 1_555 1_555
H10_6 C10_6 1_555 1_555
O9_3 C2_7 1_555 1_555
O12_5 C2_7 1_555 1_555
C1_7 H1_7 1_555 1_555
C2_7 C3_7 1_555 1_555
C3_7 C1_7 1_555 1_555
O14_2 C4_7 1_555 1_555
C4_7 C1_7 1_555 1_555
O4_7 Ni5_3 1_555 1_555
C5_7 O4_7 1_555 1_555
H4_7 C5_7 1_555 1_555
H5_7 C5_7 1_555 1_555
O11_2 C7_7 1_555 1_555
O6_7 C7_7 1_555 1_555
C6_7 H6_7 1_555 1_555
C7_7 C8_7 1_555 1_555
O16_3 C9_7 1_555 1_555
O8_7 Ni8_2 1_555 1_555
H7_7 O8_7 1_555 1_555
C10_7 O8_7 1_555 1_555
H8_7 C10_7 1_555 1_555
H9_7 C10_7 1_555 1_555
H10_7 C10_7 1_555 1_555
C6_7 C8_7 1_555 1_555
C6_7 C9_7 1_555 1_555
O9 C2_8 1_555 1_555
O12_6 C2_8 1_555 1_555
C1_8 H1_8 1_555 1_555
C2_8 C3_8 1_555 1_555
C3_8 C1_8 1_555 1_555
O14_3 C4_8 1_555 1_555
C4_8 C1_8 1_555 1_555
O4_8 Ni5 1_555 1_555
C5_8 O4_8 1_555 1_555
H4_8 C5_8 1_555 1_555
H5_8 C5_8 1_555 1_555
O11_3 C7_8 1_555 1_555
O6_8 C7_8 1_555 1_555
C6_8 H6_8 1_555 1_555
C7_8 C8_8 1_555 1_555
C8_8 C4_8 1_555 1_555
O16 C9_8 1_555 1_555
C9_8 C3_8 1_555 1_555
Ni8_3 O14_3 1_555 1_555
O8_8 Ni8_3 1_555 1_555
H7_8 O8_8 1_555 1_555
C10_8 O8_8 1_555 1_555
H8_8 C10_8 1_555 1_555
H9_8 C10_8 1_555 1_555
H10_8 C10_8 1_555 1_555
C6_8 C8_8 1_555 1_555
C6_8 C9_8 1_555 1_555
O11 C7_9 1_555 1_555
O6_9 C7_9 1_555 1_555
C6_9 H6_9 1_555 1_555
C7_9 C8_9 1_555 1_555
O16_2 C9_9 1_555 1_555
O8_9 Ni8 1_555 1_555
H7_9 O8_9 1_555 1_555
C10_9 O8_9 1_555 1_555
H8_9 C10_9 1_555 1_555
H9_9 C10_9 1_555 1_555
H10_9 C10_9 1_555 1_555
C6_9 C8_9 1_555 1_555
C6_9 C9_9 1_555 1_555
O9_2 C2_9 1_555 1_555
O12_4 C2_9 1_555 1_555
C1_9 H1_9 1_555 1_555
C2_9 C3_9 1_555 1_555
C3_9 C1_9 1_555 1_555
O14 C4_9 1_555 1_555
C4_9 C1_9 1_555 1_555
O4_9 Ni5_2 1_555 1_555
C5_9 O4_9 1_555 1_555
H4_9 C5_9 1_555 1_555
H5_9 C5_9 1_555 1_555

#END
