
###############################################################################
#
# This file contains modified crystal structure data generated from the
# MOF subset of the Cambridge Structural Database (CSD) v543 
# hosted by the Cambridge Crystallographic Data Centre (CCDC).
#
# This work is licensed under the Creative Commons
# Attribution-NonCommercial-ShareAlike 4.0 International License.
# To view a copy of this license, visit
# http://creativecommons.org/licenses/by-nc-sa/4.0/
# or send a letter to
# Creative Commons, PO Box 1866, Mountain View, CA 94042, USA.
#
# CIF created using the CSD Python API on 29 September 2022
# The structure has been converted into the P1 space group
# The structure has a 3D framework
# The original CSD entry ZOLSIF is in the triclinic crystal system
# The framework has been calculated to contain at least 10.0% void space
# The void calculation uses a probe of radius 1.32A, grid spacing 0.4
# H atom positions have been added when not included in the experimental data
#
###############################################################################

data_ZOLSIF
_chemical_formula_moiety         '(C60 H44 Mn4 N4 O24)n'
_symmetry_cell_setting           triclinic
_symmetry_space_group_name_H-M   'P 1'
_symmetry_Int_Tables_number      1
_space_group_name_Hall           'P 1'
loop_
_symmetry_equiv_pos_site_id
_symmetry_equiv_pos_as_xyz
1 x,y,z
_cell_length_a                   7.452(2)
_cell_length_b                   14.778(5)
_cell_length_c                   15.463(5)
_cell_angle_alpha                74.653(13)
_cell_angle_beta                 79.183(13)
_cell_angle_gamma                81.824(12)
_cell_volume                     1605.25
loop_
_atom_site_label
_atom_site_type_symbol
_atom_site_fract_x
_atom_site_fract_y
_atom_site_fract_z
Mn5 Mn 0.00313(7) 0.66609(4) 0.29624(4)
O14 O 0.0785(3) 0.46088(17) 0.73063(17)
O16 O 0.2711(3) 0.28523(17) 0.66060(16)
Mn1 Mn 0.99687(7) 0.33391(4) 0.70376(4)
O3 O 0.7010(3) 0.38769(17) 0.70467(17)
O4 O 0.9016(3) 0.43886(19) 0.58502(18)
O5 O 0.7289(3) 0.71477(17) 0.33940(16)
O6 O 0.4494(3) 0.78399(17) 0.35246(16)
O11 O 0.9212(4) 0.21668(19) 0.6585(2)
H1 H 0.938(6) 0.170(3) 0.694(3)
H2 H 0.796(6) 0.227(3) 0.645(3)
N1 N 0.1166(4) 0.6112(2) 0.6502(2)
H5 H 0.0629 0.6692 0.6397
C1 C 0.2981(5) 0.5983(2) 0.6042(2)
C2 C 0.4263(5) 0.5270(2) 0.6388(2)
H7 H 0.3937 0.4829 0.6949
C3 C 0.6024(4) 0.5206(2) 0.5910(2)
C4 C 0.6528(5) 0.5846(2) 0.5099(2)
H8 H 0.7744 0.5799 0.4779
C5 C 0.5234(5) 0.6560(2) 0.4757(2)
C6 C 0.3475(5) 0.6630(2) 0.5232(2)
H9 H 0.2599 0.7126 0.5002
C7 C 0.0175(5) 0.5447(2) 0.7082(2)
C8 C 0.7431(5) 0.4444(2) 0.6279(2)
C9 C 0.5704(5) 0.7219(2) 0.3850(2)
Mn7 Mn 0.62303(7) 0.82598(4) 0.21716(4)
O19 O 0.9535(4) 0.26047(19) 0.84196(18)
C19 C 0.4616(5) 0.6257(3) 0.8181(3)
C20 C 0.5561(5) 0.6869(3) 0.7443(3)
H13 H 0.4965 0.7466 0.7187
C21 C 0.7345(5) 0.6624(3) 0.7077(3)
H14 H 0.7942 0.7042 0.6560
C22 C 0.8270(5) 0.5772(2) 0.7457(2)
C23 C 0.7352(5) 0.5165(3) 0.8206(3)
H15 H 0.7965 0.4577 0.8474
C24 C 0.5571(5) 0.5405(3) 0.8562(3)
H16 H 0.4978 0.4984 0.9078
C25 C 0.2667(5) 0.6503(3) 0.8535(3)
C26 C 0.1598(5) 0.7221(3) 0.8017(3)
H17 H 0.2141 0.7565 0.7439
C30 C 0.1816(5) 0.6033(3) 0.9383(3)
H20 H 0.2509 0.5546 0.9755
Mn2 Mn 0.37697(7) 0.17402(4) 0.78284(4)
O7 O 0.2499(4) 0.07495(17) 0.73972(17)
O12 O 0.5996(4) 0.0856(3) 0.8480(3)
O13 O 0.4431(5) 0.2948(2) 0.8147(2)
H3 H 0.423(7) 0.316(4) 0.855(4)
H4 H 0.526(7) 0.330(4) 0.786(3)
C17 C 0.1256(5) 0.0252(2) 0.7898(3)
O17 O 0.5506(3) 0.21601(17) 0.64754(16)
O18 O 0.1762(3) 0.15831(18) 0.90005(17)
H21 H 0.68408 0.0559864 0.803205
H22 H 0.668273 0.125034 0.870744
O2 O 0.6208(3) 0.66175(18) 0.02129(17)
O10 O 0.0465(4) 0.73953(19) 0.15804(18)
C14 C 0.1168(5) 0.8369(2) 0.0102(2)
C15 C 0.2979(5) 0.7962(2) 0.0019(2)
H12 H 0.3366 0.7454 0.0488
H19 H 0.9455 0.5923 0.0281
O9 O 0.8238(3) 0.84169(18) 0.09995(17)
C18 C 0.9861(5) 0.8032(2) 0.0956(3)
C18_2 C 0.0139(5) 0.1968(2) 0.9044(3)
O2_2 O 0.3792(3) 0.33825(18) 0.97871(17)
C14_2 C 0.8832(5) 0.1631(2) 0.9898(2)
C15_2 C 0.7021(5) 0.2038(2) 0.9981(2)
H12_2 H 0.6634 0.2546 0.9512
H19_2 H 0.0545 0.4077 0.9719
O7_2 O 0.7501(4) 0.92505(17) 0.26028(17)
O12_2 O 0.4004(4) 0.9144(3) 0.1520(3)
O13_2 O 0.5569(5) 0.7052(2) 0.1853(2)
H3_2 H 0.577(7) 0.684(4) 0.145(4)
H4_2 H 0.474(7) 0.670(4) 0.214(3)
C17_2 C 0.8744(5) 0.9748(2) 0.2102(3)
H21_2 H 0.31592 0.944014 0.196795
H22_2 H 0.331727 0.874966 0.129256
C19_2 C 0.5384(5) 0.3743(3) 0.1819(3)
C20_2 C 0.4439(5) 0.3131(3) 0.2557(3)
H13_2 H 0.5035 0.2534 0.2813
C21_2 C 0.2655(5) 0.3376(3) 0.2923(3)
H14_2 H 0.2058 0.2958 0.3440
C22_2 C 0.1730(5) 0.4228(2) 0.2543(2)
C23_2 C 0.2648(5) 0.4835(3) 0.1794(3)
H15_2 H 0.2035 0.5423 0.1526
C24_2 C 0.4429(5) 0.4595(3) 0.1438(3)
H16_2 H 0.5022 0.5016 0.0922
C25_2 C 0.7333(5) 0.3497(3) 0.1465(3)
C26_2 C 0.8402(5) 0.2779(3) 0.1983(3)
H17_2 H 0.7859 0.2435 0.2561
C30_2 C 0.8184(5) 0.3967(3) 0.0617(3)
H20_2 H 0.7491 0.4454 0.0245
O1 O 0.9215(3) 0.53912(17) 0.26937(17)
O3_2 O 0.2990(3) 0.61231(17) 0.29533(17)
O4_2 O 0.0984(3) 0.56114(19) 0.41498(18)
O11_2 O 0.0788(4) 0.78332(19) 0.3415(2)
H1_2 H 0.062(6) 0.830(3) 0.306(3)
H2_2 H 0.204(6) 0.773(3) 0.355(3)
N1_2 N 0.8834(4) 0.3888(2) 0.3498(2)
H5_2 H 0.9371 0.3308 0.3603
C1_2 C 0.7019(5) 0.4017(2) 0.3958(2)
C2_2 C 0.5737(5) 0.4730(2) 0.3612(2)
H7_2 H 0.6063 0.5171 0.3051
C3_2 C 0.3976(4) 0.4794(2) 0.4090(2)
C4_2 C 0.3472(5) 0.4154(2) 0.4901(2)
H8_2 H 0.2256 0.4201 0.5221
C5_2 C 0.4766(5) 0.3440(2) 0.5243(2)
C6_2 C 0.6525(5) 0.3370(2) 0.4768(2)
H9_2 H 0.7401 0.2874 0.4998
C7_2 C 0.9825(5) 0.4553(2) 0.2918(2)
C8_2 C 0.2569(5) 0.5556(2) 0.3721(2)
C9_2 C 0.4296(5) 0.2781(2) 0.6150(2)
N2 N 0.6086(4) 0.7958(2) 0.9092(2)
H6 H 0.6775 0.8315 0.8642
C10 C 0.4220(5) 0.8304(2) 0.9242(3)
C11 C 0.3630(5) 0.9050(2) 0.8566(2)
H10 H 0.4476 0.9291 0.8041
C12 C 0.1828(5) 0.9447(2) 0.8644(2)
C13 C 0.0584(5) 0.9098(2) 0.9413(2)
C16 C 0.6971(5) 0.7158(2) 0.9539(2)
C27 C 0.9783(5) 0.7440(3) 0.8325(3)
H18 H 0.9088 0.7928 0.7954
C28 C 0.8934(5) 0.6961(2) 0.9175(2)
C29 C 0.9993(5) 0.6256(3) 0.9698(3)
O8 O 0.9613(4) 0.0395(2) 0.7785(2)
H11 H 0.9339 0.9359 0.9465
H11_2 H 0.0661 0.0641 0.0535
O8_2 O 0.0387(4) 0.9605(2) 0.2215(2)
N2_2 N 0.3914(4) 0.2042(2) 0.0908(2)
H6_2 H 0.3225 0.1685 0.1358
C10_2 C 0.5780(5) 0.1696(2) 0.0758(3)
C11_2 C 0.6370(5) 0.0950(2) 0.1434(2)
H10_2 H 0.5524 0.0709 0.1959
C12_2 C 0.8172(5) 0.0553(2) 0.1356(2)
C13_2 C 0.9416(5) 0.0902(2) 0.0587(2)
C16_2 C 0.3029(5) 0.2842(2) 0.0461(2)
C27_2 C 0.0217(5) 0.2560(3) 0.1675(3)
H18_2 H 0.0912 0.2072 0.2046
C28_2 C 0.1066(5) 0.3039(2) 0.0825(2)
C29_2 C 0.0007(5) 0.3744(3) 0.0302(3)
loop_
_geom_bond_atom_site_label_1
_geom_bond_atom_site_label_2
_geom_bond_site_symmetry_1
_geom_bond_site_symmetry_2
Mn1 O3 1_555 1_555
O14 C7 1_555 1_555
O3 C8 1_555 1_555
O4 Mn1 1_555 1_555
O5 C9 1_555 1_555
O6 C9 1_555 1_555
O11 Mn1 1_555 1_555
H1 O11 1_555 1_555
H2 O11 1_555 1_555
N1 H5 1_555 1_555
C1 N1 1_555 1_555
C2 C1 1_555 1_555
H7 C2 1_555 1_555
C3 C2 1_555 1_555
C4 C3 1_555 1_555
H8 C4 1_555 1_555
C5 C4 1_555 1_555
C6 C1 1_555 1_555
H9 C6 1_555 1_555
C7 N1 1_555 1_555
C8 O4 1_555 1_555
C9 C5 1_555 1_555
Mn7 O5 1_555 1_555
O19 Mn1 1_555 1_555
O6 Mn7 1_555 1_555
C3 C8 1_555 1_555
C5 C6 1_555 1_555
C19 C20 1_555 1_555
C20 H13 1_555 1_555
C21 C20 1_555 1_555
H14 C21 1_555 1_555
C23 C22 1_555 1_555
H15 C23 1_555 1_555
C24 C19 1_555 1_555
H16 C24 1_555 1_555
C25 C19 1_555 1_555
C26 C25 1_555 1_555
H17 C26 1_555 1_555
C30 C25 1_555 1_555
H20 C30 1_555 1_555
C21 C22 1_555 1_555
C23 C24 1_555 1_555
Mn2 O7 1_555 1_555
O7 C17 1_555 1_555
O12 Mn2 1_555 1_555
O13 Mn2 1_555 1_555
H3 O13 1_555 1_555
H4 O13 1_555 1_555
O16 Mn2 1_555 1_555
O17 Mn2 1_555 1_555
O18 Mn2 1_555 1_555
O12 H21 1_555 1_555
O12 H22 1_555 1_555
H12 C15 1_555 1_555
Mn5 O10 1_555 1_555
C14 C15 1_555 1_555
O9 C18 1_555 1_555
Mn7 O9 1_555 1_555
O18 C18_2 1_555 1_555
H12_2 C15_2 1_555 1_555
C14_2 C15_2 1_555 1_555
Mn7 O7_2 1_555 1_555
O7_2 C17_2 1_555 1_555
O12_2 Mn7 1_555 1_555
O13_2 Mn7 1_555 1_555
H3_2 O13_2 1_555 1_555
H4_2 O13_2 1_555 1_555
O12_2 H21_2 1_555 1_555
O12_2 H22_2 1_555 1_555
C19_2 C20_2 1_555 1_555
C20_2 H13_2 1_555 1_555
C21_2 C20_2 1_555 1_555
H14_2 C21_2 1_555 1_555
C23_2 C22_2 1_555 1_555
H15_2 C23_2 1_555 1_555
C24_2 C19_2 1_555 1_555
H16_2 C24_2 1_555 1_555
C25_2 C19_2 1_555 1_555
C26_2 C25_2 1_555 1_555
H17_2 C26_2 1_555 1_555
C30_2 C25_2 1_555 1_555
H20_2 C30_2 1_555 1_555
C21_2 C22_2 1_555 1_555
C23_2 C24_2 1_555 1_555
Mn5 O3_2 1_555 1_555
O1 C7_2 1_555 1_555
O3_2 C8_2 1_555 1_555
O4_2 Mn5 1_555 1_555
O16 C9_2 1_555 1_555
O17 C9_2 1_555 1_555
O11_2 Mn5 1_555 1_555
H1_2 O11_2 1_555 1_555
H2_2 O11_2 1_555 1_555
N1_2 H5_2 1_555 1_555
C1_2 N1_2 1_555 1_555
C2_2 C1_2 1_555 1_555
H7_2 C2_2 1_555 1_555
C3_2 C2_2 1_555 1_555
C4_2 C3_2 1_555 1_555
H8_2 C4_2 1_555 1_555
C5_2 C4_2 1_555 1_555
C6_2 C1_2 1_555 1_555
H9_2 C6_2 1_555 1_555
C7_2 N1_2 1_555 1_555
C8_2 O4_2 1_555 1_555
C9_2 C5_2 1_555 1_555
C3_2 C8_2 1_555 1_555
C5_2 C6_2 1_555 1_555
N2 H6 1_555 1_555
C10 N2 1_555 1_555
C11 C10 1_555 1_555
H10 C11 1_555 1_555
C12 C11 1_555 1_555
C13 C12 1_555 1_555
C16 N2 1_555 1_555
H18 C27 1_555 1_555
C28 C16 1_555 1_555
C29 C28 1_555 1_555
C27 C28 1_555 1_555
N2_2 H6_2 1_555 1_555
C10_2 N2_2 1_555 1_555
C11_2 C10_2 1_555 1_555
H10_2 C11_2 1_555 1_555
C12_2 C11_2 1_555 1_555
C13_2 C12_2 1_555 1_555
C16_2 N2_2 1_555 1_555
H18_2 C27_2 1_555 1_555
C28_2 C16_2 1_555 1_555
C29_2 C28_2 1_555 1_555
C27_2 C28_2 1_555 1_555

#END
