
###############################################################################
#
# This file contains modified crystal structure data generated from the
# MOF subset of the Cambridge Structural Database (CSD) v543 
# hosted by the Cambridge Crystallographic Data Centre (CCDC).
#
# This work is licensed under the Creative Commons
# Attribution-NonCommercial-ShareAlike 4.0 International License.
# To view a copy of this license, visit
# http://creativecommons.org/licenses/by-nc-sa/4.0/
# or send a letter to
# Creative Commons, PO Box 1866, Mountain View, CA 94042, USA.
#
# CIF created using the CSD Python API on 29 September 2022
# The structure has been converted into the P1 space group
# The structure has a 3D framework
# The original CSD entry ZOMNEW is in the monoclinic crystal system
# The original CSD entry ZOMNEW is in a Sohncke space group
# The framework has been calculated to contain at least 10.0% void space
# The void calculation uses a probe of radius 1.32A, grid spacing 0.4
#
###############################################################################

data_ZOMNEW
_chemical_formula_moiety         '(C28 H36 Mo6 N8 O8 Zn2)n'
_symmetry_cell_setting           triclinic
_symmetry_space_group_name_H-M   'P 1'
_symmetry_Int_Tables_number      1
_space_group_name_Hall           'P 1'
loop_
_symmetry_equiv_pos_site_id
_symmetry_equiv_pos_as_xyz
1 x,y,z
_cell_length_a                   13.901(7)
_cell_length_b                   12.713(6)
_cell_length_c                   7.070(3)
_cell_angle_alpha                90
_cell_angle_beta                 91.139(9)
_cell_angle_gamma                90
_cell_volume                     1249.19
loop_
_atom_site_label
_atom_site_type_symbol
_atom_site_fract_x
_atom_site_fract_y
_atom_site_fract_z
Zn1 Zn -0.0000 0.08125(4) 0.5000
Mo1 Mo -0.0000 0.00072(3) -0.0000
H11 H 0.2252 0.0264 0.5149
N5 N 0.1074(3) 0.2043(3) 0.4735(6)
O5 O 0.0213(3) 0.0798(3) 0.7985(5)
Mo1_2 Mo -0.0000 0.00072(3) 1.0000
O2 O 0.0994(4) 0.9203(4) 0.0476(7)
C8 C 0.1951(4) 0.9652(4) 0.5705(9)
H10 H 0.1858 0.9802 0.7033
C9 C 0.2635(4) 0.8725(4) 0.5552(9)
C10 C 0.0518(4) 0.8535(4) 0.5347(9)
H12 H 0.0537 0.8469 0.6714
H13 H 0.0847 0.7932 0.4823
C11 C 0.2906(6) 0.8378(6) 0.3847(10)
H14 H 0.2684 0.8710 0.2750
C12 C 0.3039(6) 0.8275(6) 0.7088(11)
H15 H 0.2918 0.8543 0.8284
C13 C 0.3645(5) 0.7400(6) 0.6897(9)
H16 H 0.3857 0.7055 0.7989
C14 C 0.3539(5) 0.7492(6) 0.3737(9)
H17 H 0.3684 0.7222 0.2553
N3 N 0.1022(3) 0.9501(3) 0.4804(6)
H18 H 0.1140 0.9430 0.3549
N4 N 0.3926(3) 0.7043(3) 0.5265(6)
Zn4 Zn 0.5000 0.58125(4) 0.5000
Zn1_2 Zn 1.0000 0.08125(4) 0.5000
Mo1_3 Mo 1.0000 0.00072(3) -0.0000
H2 H 0.7748 0.0264 0.4851
O1 O 0.9787(3) 0.0798(3) 0.2015(5)
N6 N 0.8926(3) 0.2043(3) 0.5265(6)
Mo1_4 Mo 1.0000 0.00072(3) 1.0000
C1 C 0.8049(4) 0.9652(4) 0.4295(9)
H1 H 0.8142 0.9802 0.2967
C2 C 0.7365(4) 0.8725(4) 0.4448(9)
C3 C 0.9482(4) 0.8535(4) 0.4653(9)
H3 H 0.9463 0.8469 0.3286
H4 H 0.9153 0.7932 0.5177
C4 C 0.7094(6) 0.8378(6) 0.6153(10)
H5 H 0.7316 0.8710 0.7250
C5 C 0.6961(6) 0.8275(6) 0.2912(11)
H6 H 0.7082 0.8543 0.1716
C6 C 0.6355(5) 0.7400(6) 0.3103(9)
H7 H 0.6143 0.7055 0.2011
C7 C 0.6461(5) 0.7492(6) 0.6263(9)
H8 H 0.6316 0.7222 0.7447
N1 N 0.8978(3) 0.9501(3) 0.5196(6)
H9 H 0.8860 0.9430 0.6451
N2 N 0.6074(3) 0.7043(3) 0.4735(6)
O4 O 0.9006(4) 0.9203(4) 0.9524(7)
Mo1_5 Mo 0.5000 0.50072(3) -0.0000
C1_2 C 0.3049(4) 0.4652(4) 0.4295(9)
H1_2 H 0.3142 0.4802 0.2967
H2_2 H 0.2748 0.5264 0.4851
C2_2 C 0.2365(4) 0.3725(4) 0.4448(9)
C3_2 C 0.4482(4) 0.3535(4) 0.4653(9)
H3_2 H 0.4463 0.3469 0.3286
H4_2 H 0.4153 0.2932 0.5177
C4_2 C 0.2094(6) 0.3378(6) 0.6153(10)
H5_2 H 0.2316 0.3710 0.7250
C5_2 C 0.1961(6) 0.3275(6) 0.2912(11)
H6_2 H 0.2082 0.3543 0.1716
C6_2 C 0.1355(5) 0.2400(6) 0.3103(9)
H7_2 H 0.1143 0.2055 0.2011
C7_2 C 0.1461(5) 0.2492(6) 0.6263(9)
H8_2 H 0.1316 0.2222 0.7447
N1_2 N 0.3978(3) 0.4501(3) 0.5196(6)
H9_2 H 0.3860 0.4430 0.6451
O1_2 O 0.4787(3) 0.5798(3) 0.2015(5)
O2_2 O 0.5994(4) 0.4203(4) 0.0476(7)
C8_2 C 0.6951(4) 0.4652(4) 0.5705(9)
H10_2 H 0.6858 0.4802 0.7033
H11_2 H 0.7252 0.5264 0.5149
C9_2 C 0.7635(4) 0.3725(4) 0.5552(9)
C10_2 C 0.5518(4) 0.3535(4) 0.5347(9)
H12_2 H 0.5537 0.3469 0.6714
H13_2 H 0.5847 0.2932 0.4823
C11_2 C 0.7906(6) 0.3378(6) 0.3847(10)
H14_2 H 0.7684 0.3710 0.2750
C12_2 C 0.8039(6) 0.3275(6) 0.7088(11)
H15_2 H 0.7918 0.3543 0.8284
C13_2 C 0.8645(5) 0.2400(6) 0.6897(9)
H16_2 H 0.8857 0.2055 0.7989
C14_2 C 0.8539(5) 0.2492(6) 0.3737(9)
H17_2 H 0.8684 0.2222 0.2553
N3_2 N 0.6022(3) 0.4501(3) 0.4804(6)
H18_2 H 0.6140 0.4430 0.3549
O5_2 O 0.5213(3) 0.5798(3) 0.7985(5)
Mo1_6 Mo 0.5000 0.50072(3) 1.0000
O4_2 O 0.4006(4) 0.4203(4) 0.9524(7)
loop_
_geom_bond_atom_site_label_1
_geom_bond_atom_site_label_2
_geom_bond_site_symmetry_1
_geom_bond_site_symmetry_2
N5 Zn1 1_555 1_555
O5 Zn1 1_555 1_555
O5 Mo1_2 1_555 1_555
C8 H10 1_555 1_555
C9 C8 1_555 1_555
H12 C10 1_555 1_555
H13 C10 1_555 1_555
C11 C9 1_555 1_555
H14 C11 1_555 1_555
C12 C9 1_555 1_555
H15 C12 1_555 1_555
C13 C12 1_555 1_555
H16 C13 1_555 1_555
C14 C11 1_555 1_555
H17 C14 1_555 1_555
H18 N3 1_555 1_555
N4 C13 1_555 1_555
Zn4 N4 1_555 1_555
C8 N3 1_555 1_555
C10 N3 1_555 1_555
C14 N4 1_555 1_555
Mo1_3 O1 1_555 1_555
O1 Zn1_2 1_555 1_555
N6 Zn1_2 1_555 1_555
C1 H1 1_555 1_555
C2 C1 1_555 1_555
C3 H3 1_555 1_555
H4 C3 1_555 1_555
C4 C2 1_555 1_555
H5 C4 1_555 1_555
C5 C2 1_555 1_555
H6 C5 1_555 1_555
C6 C5 1_555 1_555
H7 C6 1_555 1_555
C7 C4 1_555 1_555
H8 C7 1_555 1_555
N1 C1 1_555 1_555
H9 N1 1_555 1_555
N2 C6 1_555 1_555
Zn4 N2 1_555 1_555
C3 N1 1_555 1_555
C7 N2 1_555 1_555
Zn4 N1_2 1_555 1_555
Mo1_5 O1_2 1_555 1_555
C1_2 H1_2 1_555 1_555
H2_2 C1_2 1_555 1_555
C2_2 C1_2 1_555 1_555
C3_2 H3_2 1_555 1_555
H4_2 C3_2 1_555 1_555
C4_2 C2_2 1_555 1_555
H5_2 C4_2 1_555 1_555
C5_2 C2_2 1_555 1_555
H6_2 C5_2 1_555 1_555
C6_2 C5_2 1_555 1_555
H7_2 C6_2 1_555 1_555
C7_2 C4_2 1_555 1_555
H8_2 C7_2 1_555 1_555
N1_2 C1_2 1_555 1_555
H9_2 N1_2 1_555 1_555
N5 C6_2 1_555 1_555
O1_2 Zn4 1_555 1_555
O2_2 Mo1_5 1_555 1_555
C8_2 H10_2 1_555 1_555
H11_2 C8_2 1_555 1_555
C9_2 C8_2 1_555 1_555
C10_2 C3_2 1_555 1_555
H12_2 C10_2 1_555 1_555
H13_2 C10_2 1_555 1_555
C11_2 C9_2 1_555 1_555
H14_2 C11_2 1_555 1_555
C12_2 C9_2 1_555 1_555
H15_2 C12_2 1_555 1_555
C13_2 C12_2 1_555 1_555
H16_2 C13_2 1_555 1_555
C14_2 C11_2 1_555 1_555
H17_2 C14_2 1_555 1_555
N3_2 Zn4 1_555 1_555
H18_2 N3_2 1_555 1_555
N6 C13_2 1_555 1_555
O5_2 Zn4 1_555 1_555
C3_2 N1_2 1_555 1_555
C7_2 N5 1_555 1_555
C8_2 N3_2 1_555 1_555
C10_2 N3_2 1_555 1_555
C14_2 N6 1_555 1_555
O5_2 Mo1_6 1_555 1_555
O4_2 Mo1_6 1_555 1_555

#END
