
###############################################################################
#
# This file contains modified crystal structure data generated from the
# MOF subset of the Cambridge Structural Database (CSD) v543 
# hosted by the Cambridge Crystallographic Data Centre (CCDC).
#
# This work is licensed under the Creative Commons
# Attribution-NonCommercial-ShareAlike 4.0 International License.
# To view a copy of this license, visit
# http://creativecommons.org/licenses/by-nc-sa/4.0/
# or send a letter to
# Creative Commons, PO Box 1866, Mountain View, CA 94042, USA.
#
# CIF created using the CSD Python API on 29 September 2022
# The structure has been converted into the P1 space group
# The structure has a 3D framework
# The original CSD entry ZOVHUQ is in the orthorhombic crystal system
# The original CSD entry ZOVHUQ is in a Sohncke space group
# The framework has been calculated to contain at least 10.0% void space
# The void calculation uses a probe of radius 1.32A, grid spacing 0.4
# H atom positions have been added when not included in the experimental data
#
###############################################################################

data_ZOVHUQ
_chemical_formula_moiety         '(C96 H32 Al16 O79 S16)n'
_symmetry_cell_setting           triclinic
_symmetry_space_group_name_H-M   'P 1'
_symmetry_Int_Tables_number      1
_space_group_name_Hall           'P 1'
loop_
_symmetry_equiv_pos_site_id
_symmetry_equiv_pos_as_xyz
1 x,y,z
_cell_length_a                   15.4370(14)
_cell_length_b                   24.0600(16)
_cell_length_c                   14.2606(12)
_cell_angle_alpha                90
_cell_angle_beta                 90
_cell_angle_gamma                90
_cell_volume                     5296.59
loop_
_atom_site_label
_atom_site_type_symbol
_atom_site_fract_x
_atom_site_fract_y
_atom_site_fract_z
_atom_site_U_iso_or_equiv
_atom_site_thermal_displace_type
Al12 Al 0.045(3) 0.203(2) 0.272(3) 0.0013 Uiso
Al17 Al 0.005(3) 0.0670(17) 0.260(3) 0.0013 Uiso
Al22 Al 0.071(3) 0.4547(17) 0.169(3) 0.0013 Uiso
O27 O 0.024(4) 0.313(3) 0.381(6) 0.0380 Uiso
Al9 Al 0.112(3) 0.3386(18) 0.291(3) 0.0013 Uiso
C8 C 0.249(4) 0.0323(13) 0.584(4) 0.0380 Uiso
C9 C 0.191(4) 0.0449(10) 0.511(4) 0.0380 Uiso
O10 O 0.056(5) 0.035(3) 0.362(6) 0.0380 Uiso
O21 O 0.500 0.0 0.748(8) 0.0380 Uiso
O51 O 0.367(4) 0.012(2) 0.894(5) 0.0380 Uiso
Al23 Al 0.571(3) 0.0453(17) 0.831(3) 0.0013 Uiso
H11 H 0.279706 0.0633081 0.628606 . .
H12 H 0.171628 0.0869381 0.491991 . .
C18 C 0.099(3) 0.5526(18) 0.063(3) 0.0380 Uiso
O14 O 0.020(3) 0.564(3) 0.074(6) 0.0380 Uiso
O15 O 0.133(4) 0.512(2) 0.106(5) 0.0380 Uiso
S4 S 0.194(2) 0.8913(9) 0.024(2) 0.0380 Uiso
C19 C 0.131(3) 0.8376(14) 0.062(3) 0.0380 Uiso
C20 C 0.143(4) 0.7905(13) 0.011(4) 0.0380 Uiso
C23 C 0.073(3) 0.847(2) 0.143(3) 0.0380 Uiso
O16 O 0.047(7) 0.807(3) 0.192(5) 0.0380 Uiso
O17 O 0.049(5) 0.897(3) 0.163(5) 0.0380 Uiso
C42 C 0.901(3) 0.4474(18) 0.063(3) 0.0380 Uiso
O34 O 0.980(3) 0.436(3) 0.074(6) 0.0380 Uiso
O35 O 0.867(4) 0.488(2) 0.106(5) 0.0380 Uiso
S8 S 0.806(2) 0.1087(9) 0.024(2) 0.0380 Uiso
C43 C 0.869(3) 0.1624(14) 0.062(3) 0.0380 Uiso
C44 C 0.857(4) 0.2095(13) 0.011(4) 0.0380 Uiso
C47 C 0.927(3) 0.153(2) 0.143(3) 0.0380 Uiso
O36 O 0.953(7) 0.193(3) 0.192(5) 0.0380 Uiso
O37 O 0.951(5) 0.103(3) 0.163(5) 0.0380 Uiso
Al25 Al 0.929(3) 0.5453(17) 0.169(3) 0.0013 Uiso
H8 H 0.890754 0.248442 0.0244047 . .
H13 H 0.109246 0.751558 0.0244047 . .
Al1 Al 0.388(3) 0.8386(18) 0.709(3) 0.0013 Uiso
Al2 Al 0.455(3) 0.703(2) 0.728(3) 0.0013 Uiso
Al3 Al 0.495(3) 0.5670(17) 0.740(3) 0.0013 Uiso
O1 O 0.500 0.500 0.814(8) 0.0380 Uiso
O2 O 0.481(5) 0.632(3) 0.670(6) 0.0380 Uiso
O3 O 0.430(6) 0.775(4) 0.778(6) 0.0380 Uiso
S1 S 0.171(2) 0.7628(11) 0.494(2) 0.0380 Uiso
C1 C 0.230(3) 0.7192(15) 0.563(3) 0.0380 Uiso
C2 C 0.204(4) 0.6654(13) 0.557(4) 0.0380 Uiso
C3 C 0.134(4) 0.6591(12) 0.495(4) 0.0380 Uiso
C4 C 0.110(3) 0.7083(14) 0.456(3) 0.0380 Uiso
C5 C 0.301(3) 0.743(2) 0.621(3) 0.0380 Uiso
O4 O 0.365(5) 0.713(3) 0.646(6) 0.0380 Uiso
O5 O 0.298(4) 0.794(3) 0.644(6) 0.0380 Uiso
C6 C 0.040(3) 0.720(2) 0.388(4) 0.0380 Uiso
O6 O 0.044(4) 0.763(3) 0.336(5) 0.0380 Uiso
S2 S 0.2046(17) 0.9389(10) 0.513(2) 0.0380 Uiso
C7 C 0.262(3) 0.9766(15) 0.592(3) 0.0380 Uiso
C10 C 0.162(3) 0.9984(12) 0.467(3) 0.0380 Uiso
C11 C 0.318(3) 0.946(2) 0.659(3) 0.0380 Uiso
O8 O 0.343(5) 0.897(3) 0.641(4) 0.0380 Uiso
O9 O 0.341(6) 0.969(3) 0.736(4) 0.0380 Uiso
C12 C 0.100(3) 0.993(2) 0.387(3) 0.0380 Uiso
O11 O 0.092(5) 0.947(3) 0.345(4) 0.0380 Uiso
S3 S 0.2414(17) 0.5565(9) 0.9476(19) 0.0380 Uiso
C13 C 0.265(3) 0.6169(10) 0.891(3) 0.0380 Uiso
C14 C 0.208(3) 0.6583(11) 0.910(4) 0.0380 Uiso
C15 C 0.143(3) 0.6408(14) 0.973(4) 0.0380 Uiso
C16 C 0.153(2) 0.5868(13) 0.998(3) 0.0380 Uiso
C17 C 0.342(3) 0.6180(16) 0.829(3) 0.0380 Uiso
O12 O 0.388(4) 0.574(2) 0.819(5) 0.0380 Uiso
O13 O 0.363(5) 0.662(2) 0.786(6) 0.0380 Uiso
C21 C 0.204(4) 0.7979(14) 0.939(4) 0.0380 Uiso
C22 C 0.237(3) 0.8503(15) 0.938(3) 0.0380 Uiso
C24 C 0.303(3) 0.875(2) 0.875(3) 0.0380 Uiso
O18 O 0.359(4) 0.909(4) 0.907(3) 0.0380 Uiso
O19 O 0.304(5) 0.862(4) 0.789(3) 0.0380 Uiso
Al4 Al 0.429(3) 0.9547(17) 0.831(3) 0.0013 Uiso
O20 O 0.469(6) 0.889(3) 0.769(6) 0.0380 Uiso
O21_2 O 0.500 1.0 0.748(8) 0.0380 Uiso
Al5 Al 0.612(3) 0.1614(18) 0.709(3) 0.0013 Uiso
Al6 Al 0.545(3) 0.297(2) 0.728(3) 0.0013 Uiso
Al7 Al 0.505(3) 0.4330(17) 0.740(3) 0.0013 Uiso
O22 O 0.519(5) 0.368(3) 0.670(6) 0.0380 Uiso
O23 O 0.570(6) 0.225(4) 0.778(6) 0.0380 Uiso
S5 S 0.829(2) 0.2372(11) 0.494(2) 0.0380 Uiso
C25 C 0.770(3) 0.2808(15) 0.563(3) 0.0380 Uiso
C26 C 0.796(4) 0.3346(13) 0.557(4) 0.0380 Uiso
C27 C 0.866(4) 0.3409(12) 0.495(4) 0.0380 Uiso
C28 C 0.890(3) 0.2917(14) 0.456(3) 0.0380 Uiso
C29 C 0.699(3) 0.257(2) 0.621(3) 0.0380 Uiso
O24 O 0.635(5) 0.287(3) 0.646(6) 0.0380 Uiso
O25 O 0.702(4) 0.206(3) 0.644(6) 0.0380 Uiso
C30 C 0.960(3) 0.280(2) 0.388(4) 0.0380 Uiso
O26 O 0.956(4) 0.237(3) 0.336(5) 0.0380 Uiso
S6 S 0.7954(17) 0.0611(10) 0.513(2) 0.0380 Uiso
C31 C 0.738(3) 0.0234(15) 0.592(3) 0.0380 Uiso
C34 C 0.838(3) 0.0016(12) 0.467(3) 0.0380 Uiso
C35 C 0.682(3) 0.054(2) 0.659(3) 0.0380 Uiso
O28 O 0.657(5) 0.103(3) 0.641(4) 0.0380 Uiso
O29 O 0.659(6) 0.031(3) 0.736(4) 0.0380 Uiso
C36 C 0.900(3) 0.007(2) 0.387(3) 0.0380 Uiso
O31 O 0.908(5) 0.053(3) 0.345(4) 0.0380 Uiso
S7 S 0.7586(17) 0.4435(9) 0.9476(19) 0.0380 Uiso
C37 C 0.735(3) 0.3831(10) 0.891(3) 0.0380 Uiso
C38 C 0.792(3) 0.3417(11) 0.910(4) 0.0380 Uiso
C39 C 0.857(3) 0.3592(14) 0.973(4) 0.0380 Uiso
C40 C 0.847(2) 0.4132(13) 0.998(3) 0.0380 Uiso
C41 C 0.658(3) 0.3820(16) 0.829(3) 0.0380 Uiso
O32 O 0.612(4) 0.426(2) 0.819(5) 0.0380 Uiso
O33 O 0.637(5) 0.338(2) 0.786(6) 0.0380 Uiso
C45 C 0.796(4) 0.2021(14) 0.939(4) 0.0380 Uiso
C46 C 0.763(3) 0.1497(15) 0.938(3) 0.0380 Uiso
C48 C 0.697(3) 0.125(2) 0.875(3) 0.0380 Uiso
O38 O 0.641(4) 0.091(4) 0.907(3) 0.0380 Uiso
O39 O 0.696(5) 0.138(4) 0.789(3) 0.0380 Uiso
O40 O 0.531(6) 0.111(3) 0.769(6) 0.0380 Uiso
O41 O 0.456(4) 0.263(3) 0.664(5) 0.0380 Uiso
O42 O 0.544(4) 0.737(3) 0.664(5) 0.0380 Uiso
O43 O 0.524(4) 0.187(3) 0.619(6) 0.0380 Uiso
O44 O 0.476(4) 0.813(3) 0.619(6) 0.0380 Uiso
O45 O 0.444(5) 0.535(3) 0.638(6) 0.0380 Uiso
O46 O 0.556(5) 0.465(3) 0.638(6) 0.0380 Uiso
O47 O 0.408(5) 0.447(3) 0.655(4) 0.0380 Uiso
O48 O 0.592(5) 0.553(3) 0.655(4) 0.0380 Uiso
O49 O 0.480(3) 0.064(3) 0.926(6) 0.0380 Uiso
O50 O 0.520(3) 0.936(3) 0.926(6) 0.0380 Uiso
O53 O 0.453(7) 0.307(3) 0.808(5) 0.0380 Uiso
O54 O 0.547(7) 0.693(3) 0.808(5) 0.0380 Uiso
O55 O 0.451(5) 0.397(3) 0.837(5) 0.0380 Uiso
O56 O 0.549(5) 0.603(3) 0.837(5) 0.0380 Uiso
H1 H 0.897309 0.380469 0.479966 . .
H3 H 0.766221 0.368684 0.595541 . .
H4 H 0.788083 0.300079 0.880292 . .
H5 H 0.908938 0.33255 0.998475 . .
H7 H 0.777313 0.234536 0.889731 . .
H9 H 0.102691 0.619531 0.479966 . .
H10 H 0.233779 0.631316 0.595541 . .
H14 H 0.211917 0.699921 0.880292 . .
H15 H 0.222687 0.765464 0.889731 . .
H16 H 0.0910625 0.66745 0.998475 . .
C32 C 0.751(4) 0.9677(13) 0.584(4) 0.0380 Uiso
C33 C 0.809(4) 0.9551(10) 0.511(4) 0.0380 Uiso
O30 O 0.944(5) 0.965(3) 0.362(6) 0.0380 Uiso
Al20 Al 0.995(3) 0.9330(17) 0.260(3) 0.0013 Uiso
O52 O 0.633(4) 0.988(2) 0.894(5) 0.0380 Uiso
H2 H 0.720294 0.936692 0.628606 . .
H6 H 0.828372 0.913062 0.491991 . .
Al14 Al 0.955(3) 0.797(2) 0.272(3) 0.0013 Uiso
O7 O 0.976(4) 0.687(3) 0.381(6) 0.0380 Uiso
Al10 Al 0.888(3) 0.6614(18) 0.291(3) 0.0013 Uiso
O1_2 O -0.000 -0.000 0.186(8) 0.0380 Uiso
O2_2 O 0.019(5) 0.132(3) 0.330(6) 0.0380 Uiso
O3_2 O 0.070(6) 0.275(4) 0.222(6) 0.0380 Uiso
S1_2 S 0.329(2) 0.2628(11) 0.506(2) 0.0380 Uiso
C1_2 C 0.270(3) 0.2192(15) 0.437(3) 0.0380 Uiso
C2_2 C 0.296(4) 0.1654(13) 0.443(4) 0.0380 Uiso
C3_2 C 0.366(4) 0.1591(12) 0.505(4) 0.0380 Uiso
C4_2 C 0.390(3) 0.2083(14) 0.544(3) 0.0380 Uiso
C5_2 C 0.199(3) 0.243(2) 0.379(3) 0.0380 Uiso
O4_2 O 0.135(5) 0.213(3) 0.354(6) 0.0380 Uiso
O5_2 O 0.202(4) 0.294(3) 0.356(6) 0.0380 Uiso
C6_2 C 0.460(3) 0.220(2) 0.612(4) 0.0380 Uiso
S2_2 S 0.2954(17) 0.4389(10) 0.487(2) 0.0380 Uiso
C7_2 C 0.238(3) 0.4766(15) 0.408(3) 0.0380 Uiso
C8_2 C 0.251(4) 0.5323(13) 0.416(4) 0.0380 Uiso
C9_2 C 0.309(4) 0.5449(10) 0.489(4) 0.0380 Uiso
C10_2 C 0.338(3) 0.4984(12) 0.533(3) 0.0380 Uiso
C11_2 C 0.182(3) 0.446(2) 0.341(3) 0.0380 Uiso
O8_2 O 0.157(5) 0.397(3) 0.359(4) 0.0380 Uiso
O9_2 O 0.159(6) 0.469(3) 0.264(4) 0.0380 Uiso
C12_2 C 0.400(3) 0.493(2) 0.613(3) 0.0380 Uiso
S3_2 S 0.2586(17) 0.0565(9) 0.0524(19) 0.0380 Uiso
C13_2 C 0.235(3) 0.1169(10) 0.109(3) 0.0380 Uiso
C14_2 C 0.292(3) 0.1583(11) 0.090(4) 0.0380 Uiso
C15_2 C 0.357(3) 0.1408(14) 0.027(4) 0.0380 Uiso
C16_2 C 0.347(2) 0.0868(13) 0.002(3) 0.0380 Uiso
C17_2 C 0.158(3) 0.1180(16) 0.171(3) 0.0380 Uiso
O12_2 O 0.112(4) 0.074(2) 0.181(5) 0.0380 Uiso
O13_2 O 0.137(5) 0.162(2) 0.214(6) 0.0380 Uiso
C21_2 C 0.296(4) 0.2979(14) 0.061(4) 0.0380 Uiso
C22_2 C 0.263(3) 0.3503(15) 0.062(3) 0.0380 Uiso
C24_2 C 0.197(3) 0.375(2) 0.125(3) 0.0380 Uiso
O18_2 O 0.141(4) 0.409(4) 0.093(3) 0.0380 Uiso
O19_2 O 0.196(5) 0.362(4) 0.211(3) 0.0380 Uiso
O20_2 O 0.031(6) 0.389(3) 0.231(6) 0.0380 Uiso
O21_3 O -0.000 0.5 0.252(8) 0.0380 Uiso
H9_2 H 0.397309 0.119531 0.520034 . .
H10_2 H 0.266221 0.131316 0.404459 . .
H11_2 H 0.220294 0.563308 0.371394 . .
H12_2 H 0.328372 0.586938 0.508009 . .
H14_2 H 0.288083 0.199921 0.119708 . .
H15_2 H 0.277313 0.265464 0.110269 . .
H16_2 H 0.408938 0.16745 0.00152549 . .
C18_2 C 0.401(3) 0.0526(18) 0.937(3) 0.0380 Uiso
S4_2 S 0.306(2) 0.3913(9) 0.976(2) 0.0380 Uiso
C19_2 C 0.369(3) 0.3376(14) 0.938(3) 0.0380 Uiso
C20_2 C 0.357(4) 0.2905(13) 0.989(4) 0.0380 Uiso
C23_2 C 0.427(3) 0.347(2) 0.857(3) 0.0380 Uiso
H13_2 H 0.390754 0.251558 0.975595 . .
O1_3 O -0.000 1.000 0.186(8) 0.0380 Uiso
O1_4 O 1.000 -0.000 0.186(8) 0.0380 Uiso
O21_4 O 1.000 0.5 0.252(8) 0.0380 Uiso
O1_5 O 1.000 1.000 0.186(8) 0.0380 Uiso
O22_2 O 0.981(5) 0.868(3) 0.330(6) 0.0380 Uiso
O23_2 O 0.930(6) 0.725(4) 0.222(6) 0.0380 Uiso
S5_2 S 0.671(2) 0.7372(11) 0.506(2) 0.0380 Uiso
C25_2 C 0.730(3) 0.7808(15) 0.437(3) 0.0380 Uiso
C26_2 C 0.704(4) 0.8346(13) 0.443(4) 0.0380 Uiso
C27_2 C 0.634(4) 0.8409(12) 0.505(4) 0.0380 Uiso
C28_2 C 0.610(3) 0.7917(14) 0.544(3) 0.0380 Uiso
C29_2 C 0.801(3) 0.757(2) 0.379(3) 0.0380 Uiso
O24_2 O 0.865(5) 0.787(3) 0.354(6) 0.0380 Uiso
O25_2 O 0.798(4) 0.706(3) 0.356(6) 0.0380 Uiso
C30_2 C 0.540(3) 0.780(2) 0.612(4) 0.0380 Uiso
S6_2 S 0.7046(17) 0.5611(10) 0.487(2) 0.0380 Uiso
C31_2 C 0.762(3) 0.5234(15) 0.408(3) 0.0380 Uiso
C32_2 C 0.749(4) 0.4677(13) 0.416(4) 0.0380 Uiso
C33_2 C 0.691(4) 0.4551(10) 0.489(4) 0.0380 Uiso
C34_2 C 0.662(3) 0.5016(12) 0.533(3) 0.0380 Uiso
C35_2 C 0.818(3) 0.554(2) 0.341(3) 0.0380 Uiso
O28_2 O 0.843(5) 0.603(3) 0.359(4) 0.0380 Uiso
O29_2 O 0.841(6) 0.531(3) 0.264(4) 0.0380 Uiso
C36_2 C 0.600(3) 0.507(2) 0.613(3) 0.0380 Uiso
S7_2 S 0.7414(17) 0.9435(9) 0.0524(19) 0.0380 Uiso
C37_2 C 0.765(3) 0.8831(10) 0.109(3) 0.0380 Uiso
C38_2 C 0.708(3) 0.8417(11) 0.090(4) 0.0380 Uiso
C39_2 C 0.643(3) 0.8592(14) 0.027(4) 0.0380 Uiso
C40_2 C 0.653(2) 0.9132(13) 0.002(3) 0.0380 Uiso
C41_2 C 0.842(3) 0.8820(16) 0.171(3) 0.0380 Uiso
O32_2 O 0.888(4) 0.926(2) 0.181(5) 0.0380 Uiso
O33_2 O 0.863(5) 0.838(2) 0.214(6) 0.0380 Uiso
C45_2 C 0.704(4) 0.7021(14) 0.061(4) 0.0380 Uiso
C46_2 C 0.737(3) 0.6497(15) 0.062(3) 0.0380 Uiso
C48_2 C 0.803(3) 0.625(2) 0.125(3) 0.0380 Uiso
O38_2 O 0.859(4) 0.591(4) 0.093(3) 0.0380 Uiso
O39_2 O 0.804(5) 0.638(4) 0.211(3) 0.0380 Uiso
O40_2 O 0.969(6) 0.611(3) 0.231(6) 0.0380 Uiso
H1_2 H 0.602691 0.880469 0.520034 . .
H2_2 H 0.779706 0.436692 0.371394 . .
H3_2 H 0.733779 0.868684 0.404459 . .
H4_2 H 0.711917 0.800079 0.119708 . .
H5_2 H 0.591062 0.83255 0.00152549 . .
H6_2 H 0.671628 0.413062 0.508009 . .
H7_2 H 0.722687 0.734536 0.110269 . .
C42_2 C 0.599(3) 0.9474(18) 0.937(3) 0.0380 Uiso
S8_2 S 0.694(2) 0.6087(9) 0.976(2) 0.0380 Uiso
C43_2 C 0.631(3) 0.6624(14) 0.938(3) 0.0380 Uiso
C44_2 C 0.643(4) 0.7095(13) 0.989(4) 0.0380 Uiso
C47_2 C 0.573(3) 0.653(2) 0.857(3) 0.0380 Uiso
H8_2 H 0.609246 0.748442 0.975595 . .
loop_
_geom_bond_atom_site_label_1
_geom_bond_atom_site_label_2
_geom_bond_site_symmetry_1
_geom_bond_site_symmetry_2
Al9 O27 1_555 1_555
C8 C9 1_555 1_555
Al17 O10 1_555 1_555
Al23 O21 1_555 1_555
C8 H11 1_555 1_555
C9 H12 1_555 1_555
O14 C18 1_555 1_555
O15 C18 1_555 1_555
S4 C19 1_555 1_555
C19 C20 1_555 1_555
C23 C19 1_555 1_555
O16 C23 1_555 1_555
O17 C23 1_555 1_555
O34 C42 1_555 1_555
O35 C42 1_555 1_555
S8 C43 1_555 1_555
C43 C44 1_555 1_555
C47 C43 1_555 1_555
O36 C47 1_555 1_555
O37 C47 1_555 1_555
Al22 O15 1_555 1_555
Al25 O35 1_555 1_555
C44 H8 1_555 1_555
C20 H13 1_555 1_555
Al1 O3 1_555 1_555
Al2 O2 1_555 1_555
Al3 O1 1_555 1_555
O1 Al7 1_555 1_555
O2 Al3 1_555 1_555
O3 Al2 1_555 1_555
S1 C1 1_555 1_555
C1 C2 1_555 1_555
C2 C3 1_555 1_555
C3 C4 1_555 1_555
C4 S1 1_555 1_555
C5 C1 1_555 1_555
O4 Al2 1_555 1_555
O5 Al1 1_555 1_555
C6 C4 1_555 1_555
O6 C6 1_555 1_555
S2 C7 1_555 1_555
C10 S2 1_555 1_555
C11 C7 1_555 1_555
O8 Al1 1_555 1_555
O9 C11 1_555 1_555
C12 C10 1_555 1_555
O11 C12 1_555 1_555
S3 C13 1_555 1_555
C13 C14 1_555 1_555
C14 C15 1_555 1_555
C15 C16 1_555 1_555
C16 S3 1_555 1_555
C17 C13 1_555 1_555
O12 Al3 1_555 1_555
O13 Al2 1_555 1_555
C21 C22 1_555 1_555
C24 C22 1_555 1_555
O18 C24 1_555 1_555
O19 Al1 1_555 1_555
Al4 O9 1_555 1_555
O20 Al1 1_555 1_555
O21_2 Al4 1_555 1_555
Al5 O23 1_555 1_555
Al6 O22 1_555 1_555
Al7 O22 1_555 1_555
O23 Al6 1_555 1_555
S5 C25 1_555 1_555
C25 C26 1_555 1_555
C26 C27 1_555 1_555
C27 C28 1_555 1_555
C28 S5 1_555 1_555
C29 C25 1_555 1_555
O24 Al6 1_555 1_555
O25 Al5 1_555 1_555
C30 C28 1_555 1_555
O26 C30 1_555 1_555
S6 C31 1_555 1_555
C34 S6 1_555 1_555
C35 C31 1_555 1_555
O28 Al5 1_555 1_555
O29 C35 1_555 1_555
C36 C34 1_555 1_555
O31 C36 1_555 1_555
S7 C37 1_555 1_555
C37 C38 1_555 1_555
C38 C39 1_555 1_555
C39 C40 1_555 1_555
C40 S7 1_555 1_555
C41 C37 1_555 1_555
O32 Al7 1_555 1_555
O33 Al6 1_555 1_555
C45 C46 1_555 1_555
C48 C46 1_555 1_555
O38 C48 1_555 1_555
O39 Al5 1_555 1_555
Al23 O29 1_555 1_555
O40 Al5 1_555 1_555
O41 Al6 1_555 1_555
O42 Al2 1_555 1_555
O43 Al5 1_555 1_555
O44 Al1 1_555 1_555
O45 Al3 1_555 1_555
O46 Al7 1_555 1_555
O47 Al7 1_555 1_555
O48 Al3 1_555 1_555
O49 Al23 1_555 1_555
O50 Al4 1_555 1_555
O53 Al6 1_555 1_555
O54 Al2 1_555 1_555
O55 Al7 1_555 1_555
O56 Al3 1_555 1_555
C5 O4 1_555 1_555
C5 O5 1_555 1_555
C11 O8 1_555 1_555
C17 O12 1_555 1_555
C17 O13 1_555 1_555
C24 O19 1_555 1_555
O18 Al4 1_555 1_555
Al4 O20 1_555 1_555
C29 O24 1_555 1_555
C29 O25 1_555 1_555
C35 O28 1_555 1_555
C41 O32 1_555 1_555
C41 O33 1_555 1_555
C48 O39 1_555 1_555
O38 Al23 1_555 1_555
Al23 O40 1_555 1_555
C27 H1 1_555 1_555
C26 H3 1_555 1_555
C38 H4 1_555 1_555
C39 H5 1_555 1_555
C45 H7 1_555 1_555
C3 H9 1_555 1_555
C2 H10 1_555 1_555
C14 H14 1_555 1_555
C21 H15 1_555 1_555
C15 H16 1_555 1_555
C32 C33 1_555 1_555
Al20 O30 1_555 1_555
C32 H2 1_555 1_555
C33 H6 1_555 1_555
Al10 O7 1_555 1_555
Al9 O3_2 1_555 1_555
Al12 O2_2 1_555 1_555
Al17 O1_2 1_555 1_555
O2_2 Al17 1_555 1_555
O3_2 Al12 1_555 1_555
S1_2 C1_2 1_555 1_555
C1_2 C2_2 1_555 1_555
C2_2 C3_2 1_555 1_555
C3_2 C4_2 1_555 1_555
C4_2 S1_2 1_555 1_555
C5_2 C1_2 1_555 1_555
O4_2 Al12 1_555 1_555
O5_2 Al9 1_555 1_555
C6_2 C4_2 1_555 1_555
O41 C6_2 1_555 1_555
O43 C6_2 1_555 1_555
S2_2 C7_2 1_555 1_555
C7_2 C8_2 1_555 1_555
C8_2 C9_2 1_555 1_555
C9_2 C10_2 1_555 1_555
C10_2 S2_2 1_555 1_555
C11_2 C7_2 1_555 1_555
O8_2 Al9 1_555 1_555
O9_2 C11_2 1_555 1_555
C12_2 C10_2 1_555 1_555
O45 C12_2 1_555 1_555
O47 C12_2 1_555 1_555
S3_2 C13_2 1_555 1_555
C13_2 C14_2 1_555 1_555
C14_2 C15_2 1_555 1_555
C15_2 C16_2 1_555 1_555
C16_2 S3_2 1_555 1_555
C17_2 C13_2 1_555 1_555
O12_2 Al17 1_555 1_555
O13_2 Al12 1_555 1_555
C21_2 C22_2 1_555 1_555
C24_2 C22_2 1_555 1_555
O18_2 C24_2 1_555 1_555
O19_2 Al9 1_555 1_555
Al22 O9_2 1_555 1_555
O20_2 Al9 1_555 1_555
O21_3 Al22 1_555 1_555
C5_2 O4_2 1_555 1_555
C5_2 O5_2 1_555 1_555
C11_2 O8_2 1_555 1_555
C17_2 O12_2 1_555 1_555
C17_2 O13_2 1_555 1_555
C24_2 O19_2 1_555 1_555
O18_2 Al22 1_555 1_555
Al22 O20_2 1_555 1_555
C3_2 H9_2 1_555 1_555
C2_2 H10_2 1_555 1_555
C8_2 H11_2 1_555 1_555
C9_2 H12_2 1_555 1_555
C14_2 H14_2 1_555 1_555
C21_2 H15_2 1_555 1_555
C15_2 H16_2 1_555 1_555
O49 C18_2 1_555 1_555
O51 C18_2 1_555 1_555
S4_2 C19_2 1_555 1_555
C19_2 C20_2 1_555 1_555
C23_2 C19_2 1_555 1_555
O53 C23_2 1_555 1_555
O55 C23_2 1_555 1_555
C20_2 H13_2 1_555 1_555
Al25 O21_4 1_555 1_555
O1_5 Al20 1_555 1_555
Al10 O23_2 1_555 1_555
Al14 O22_2 1_555 1_555
Al20 O22_2 1_555 1_555
O23_2 Al14 1_555 1_555
S5_2 C25_2 1_555 1_555
C25_2 C26_2 1_555 1_555
C26_2 C27_2 1_555 1_555
C27_2 C28_2 1_555 1_555
C28_2 S5_2 1_555 1_555
C29_2 C25_2 1_555 1_555
O24_2 Al14 1_555 1_555
O25_2 Al10 1_555 1_555
C30_2 C28_2 1_555 1_555
O42 C30_2 1_555 1_555
O44 C30_2 1_555 1_555
S6_2 C31_2 1_555 1_555
C31_2 C32_2 1_555 1_555
C32_2 C33_2 1_555 1_555
C33_2 C34_2 1_555 1_555
C34_2 S6_2 1_555 1_555
C35_2 C31_2 1_555 1_555
O28_2 Al10 1_555 1_555
O29_2 C35_2 1_555 1_555
C36_2 C34_2 1_555 1_555
O46 C36_2 1_555 1_555
O48 C36_2 1_555 1_555
S7_2 C37_2 1_555 1_555
C37_2 C38_2 1_555 1_555
C38_2 C39_2 1_555 1_555
C39_2 C40_2 1_555 1_555
C40_2 S7_2 1_555 1_555
C41_2 C37_2 1_555 1_555
O32_2 Al20 1_555 1_555
O33_2 Al14 1_555 1_555
C45_2 C46_2 1_555 1_555
C48_2 C46_2 1_555 1_555
O38_2 C48_2 1_555 1_555
O39_2 Al10 1_555 1_555
Al25 O29_2 1_555 1_555
O40_2 Al10 1_555 1_555
C29_2 O24_2 1_555 1_555
C29_2 O25_2 1_555 1_555
C35_2 O28_2 1_555 1_555
C41_2 O32_2 1_555 1_555
C41_2 O33_2 1_555 1_555
C48_2 O39_2 1_555 1_555
O38_2 Al25 1_555 1_555
Al25 O40_2 1_555 1_555
C27_2 H1_2 1_555 1_555
C32_2 H2_2 1_555 1_555
C26_2 H3_2 1_555 1_555
C38_2 H4_2 1_555 1_555
C39_2 H5_2 1_555 1_555
C33_2 H6_2 1_555 1_555
C45_2 H7_2 1_555 1_555
O50 C42_2 1_555 1_555
O52 C42_2 1_555 1_555
S8_2 C43_2 1_555 1_555
C43_2 C44_2 1_555 1_555
C47_2 C43_2 1_555 1_555
O54 C47_2 1_555 1_555
O56 C47_2 1_555 1_555
C44_2 H8_2 1_555 1_555

#END
