
###############################################################################
#
# This file contains modified crystal structure data generated from the
# MOF subset of the Cambridge Structural Database (CSD) v543 
# hosted by the Cambridge Crystallographic Data Centre (CCDC).
#
# This work is licensed under the Creative Commons
# Attribution-NonCommercial-ShareAlike 4.0 International License.
# To view a copy of this license, visit
# http://creativecommons.org/licenses/by-nc-sa/4.0/
# or send a letter to
# Creative Commons, PO Box 1866, Mountain View, CA 94042, USA.
#
# CIF created using the CSD Python API on 29 September 2022
# The structure has been converted into the P1 space group
# The structure has a 3D framework
# The original CSD entry ZOXFAV02 is in the monoclinic crystal system
# The framework has been calculated to contain at least 10.0% void space
# The void calculation uses a probe of radius 1.32A, grid spacing 0.4
# The framework is charged, counterions have been retained in the structure
#
###############################################################################

data_ZOXFAV02
_chemical_formula_moiety         '(C60 H48 Cd6 N28 O12 8+)n'
_symmetry_cell_setting           triclinic
_symmetry_space_group_name_H-M   'P 1'
_symmetry_Int_Tables_number      1
_space_group_name_Hall           'P 1'
loop_
_symmetry_equiv_pos_site_id
_symmetry_equiv_pos_as_xyz
1 x,y,z
_cell_length_a                   11.6372(11)
_cell_length_b                   17.9200(15)
_cell_length_c                   13.9861(13)
_cell_angle_alpha                90
_cell_angle_beta                 123.001(6)
_cell_angle_gamma                90
_cell_volume                     2446.07
loop_
_atom_site_label
_atom_site_type_symbol
_atom_site_fract_x
_atom_site_fract_y
_atom_site_fract_z
Cd3 Cd -0.000000 0.500000 0.500000
H5 H 0.283850 0.016443 0.279155
Cd5 Cd 0.000000 -0.000000 0.000000
Cd5_2 Cd -0.000000 -0.000000 1.000000
C1 C 0.3535(3) 0.77225(16) 0.3133(3)
C2 C 0.2740(3) 0.71904(18) 0.3224(3)
H1 H 0.188643 0.731291 0.308819
C3 C 0.3244(3) 0.64715(17) 0.3522(3)
C4 C 0.4515(3) 0.62797(17) 0.3739(3)
H2 H 0.484666 0.579543 0.394873
C5 C 0.5285(3) 0.68291(16) 0.3637(3)
C6 C 0.4806(3) 0.75537(17) 0.3337(3)
H3 H 0.532951 0.791837 0.327376
C7 C 0.1825(3) 0.86315(18) 0.1777(3)
H4 H 0.124042 0.828044 0.124099
C8 C 0.2709(4) 0.9657(2) 0.2629(3)
C9 C 0.3570(4) 0.91183(18) 0.3310(3)
H6 H 0.439233 0.918142 0.400888
C10 C 0.1781(3) 0.59947(18) 0.4173(3)
H7 H 0.185438 0.641287 0.459719
C11 C 0.2105(4) 0.52215(18) 0.3119(3)
H8 H 0.241332 0.500339 0.269533
C12 C 0.1249(4) 0.49213(18) 0.3388(3)
H9 H 0.085074 0.445139 0.315749
C13 C 0.7237(3) 0.59852(17) 0.4159(3)
H10 H 0.685504 0.555471 0.424450
C14 C 0.8612(3) 0.67396(18) 0.4098(3)
H11 H 0.937974 0.692628 0.413332
C15 C 0.7486(3) 0.71429(17) 0.3805(3)
H12 H 0.733946 0.764698 0.361829
N1 N 0.2995(2) 0.84592(14) 0.2768(2)
N2 N 0.1609(2) 0.93518(14) 0.1659(2)
N3 N 0.2420(2) 0.59192(14) 0.3609(2)
N4 N 0.1046(2) 0.54051(14) 0.4048(2)
N5 N 0.6599(2) 0.66506(13) 0.3842(2)
N6 N 0.8466(2) 0.60178(14) 0.4334(2)
Cd3_2 Cd 1.000000 0.500000 0.500000
Cd5_3 Cd 0.000000 1.000000 0.000000
N14 N 0.1609(2) 0.56482(14) 0.6659(2)
N16 N 0.1534(2) 0.39822(14) 0.5666(2)
Cd5_4 Cd -0.000000 1.000000 1.000000
Cd5_5 Cd 1.000000 -0.000000 0.000000
Cd5_6 Cd 1.000000 -0.000000 1.000000
C16 C 0.6465(3) 0.22775(16) 0.6867(3)
C17 C 0.7260(3) 0.28096(18) 0.6776(3)
H13 H 0.811357 0.268709 0.691181
C18 C 0.6756(3) 0.35285(17) 0.6478(3)
C19 C 0.5485(3) 0.37203(17) 0.6261(3)
H14 H 0.515334 0.420457 0.605127
C20 C 0.4715(3) 0.31709(16) 0.6363(3)
C21 C 0.5194(3) 0.24463(17) 0.6663(3)
H15 H 0.467049 0.208163 0.672624
C22 C 0.8175(3) 0.13685(18) 0.8223(3)
H16 H 0.875958 0.171956 0.875901
C23 C 0.7291(4) 0.0343(2) 0.7371(3)
C24 C 0.6430(4) 0.08817(18) 0.6690(3)
H18 H 0.560767 0.081858 0.599112
C25 C 0.8219(3) 0.40053(18) 0.5827(3)
H19 H 0.814562 0.358713 0.540281
C26 C 0.7895(4) 0.47785(18) 0.6881(3)
H20 H 0.758668 0.499661 0.730467
C27 C 0.8751(4) 0.50787(18) 0.6612(3)
H21 H 0.914926 0.554861 0.684251
C28 C 0.2763(3) 0.40148(17) 0.5841(3)
H22 H 0.314496 0.444529 0.575550
C29 C 0.1388(3) 0.32604(18) 0.5902(3)
H23 H 0.062026 0.307372 0.586668
C30 C 0.2514(3) 0.28571(17) 0.6195(3)
H24 H 0.266054 0.235302 0.638171
N7 N 0.7005(2) 0.15408(14) 0.7232(2)
N8 N 0.8391(2) 0.06482(14) 0.8341(2)
N9 N 0.7580(2) 0.40808(14) 0.6391(2)
N10 N 0.8954(2) 0.45949(14) 0.5952(2)
N11 N 0.3401(2) 0.33494(13) 0.6158(2)
Cd5_7 Cd 1.000000 1.000000 0.000000
N13 N 0.8391(2) 0.43518(14) 0.3341(2)
Cd5_8 Cd 1.000000 1.000000 1.000000
H17 H 0.716150 0.983557 0.720845
N15 N 0.1534(2) 0.10178(14) 0.0666(2)
C27_2 C 0.1249(4) 0.00787(18) 0.8388(3)
H21_2 H 0.085074 0.054861 0.815749
C16_2 C 0.3535(3) 0.72775(16) 0.8133(3)
C17_2 C 0.2740(3) 0.78096(18) 0.8224(3)
H13_2 H 0.188643 0.768709 0.808819
C18_2 C 0.3244(3) 0.85285(17) 0.8522(3)
C19_2 C 0.4515(3) 0.87203(17) 0.8739(3)
H14_2 H 0.484666 0.920457 0.894873
C20_2 C 0.5285(3) 0.81709(16) 0.8637(3)
C21_2 C 0.4806(3) 0.74463(17) 0.8337(3)
H15_2 H 0.532951 0.708163 0.827376
C22_2 C 0.1825(3) 0.63685(18) 0.6777(3)
H16_2 H 0.124042 0.671956 0.624099
C23_2 C 0.2709(4) 0.5343(2) 0.7629(3)
H17_2 H 0.283850 0.483557 0.779155
C24_2 C 0.3570(4) 0.58817(18) 0.8310(3)
H18_2 H 0.439233 0.581858 0.900888
C25_2 C 0.1781(3) 0.90053(18) 0.9173(3)
H19_2 H 0.185438 0.858713 0.959719
C26_2 C 0.2105(4) 0.97785(18) 0.8119(3)
H20_2 H 0.241332 0.999661 0.769533
C28_2 C 0.7237(3) 0.90148(17) 0.9159(3)
H22_2 H 0.685504 0.944529 0.924450
C29_2 C 0.8612(3) 0.82604(18) 0.9098(3)
H23_2 H 0.937974 0.807372 0.913332
C30_2 C 0.7486(3) 0.78571(17) 0.8805(3)
H24_2 H 0.733946 0.735302 0.861829
N7_2 N 0.2995(2) 0.65408(14) 0.7768(2)
N9_2 N 0.2420(2) 0.90808(14) 0.8609(2)
N10_2 N 0.1046(2) 0.95949(14) 0.9048(2)
N11_2 N 0.6599(2) 0.83494(13) 0.8842(2)
N12 N 0.8466(2) 0.89822(14) 0.9334(2)
C1_2 C 0.6465(3) 0.27225(16) 0.1867(3)
C2_2 C 0.7260(3) 0.21904(18) 0.1776(3)
H1_2 H 0.811357 0.231291 0.191181
C3_2 C 0.6756(3) 0.14715(17) 0.1478(3)
C4_2 C 0.5485(3) 0.12797(17) 0.1261(3)
H2_2 H 0.515334 0.079543 0.105127
C5_2 C 0.4715(3) 0.18291(16) 0.1363(3)
C6_2 C 0.5194(3) 0.25537(17) 0.1663(3)
H3_2 H 0.467049 0.291837 0.172624
C7_2 C 0.8175(3) 0.36315(18) 0.3223(3)
H4_2 H 0.875958 0.328044 0.375901
C8_2 C 0.7291(4) 0.4657(2) 0.2371(3)
H5_2 H 0.716150 0.516443 0.220845
C9_2 C 0.6430(4) 0.41183(18) 0.1690(3)
H6_2 H 0.560767 0.418142 0.099112
C10_2 C 0.8219(3) 0.09947(18) 0.0827(3)
H7_2 H 0.814562 0.141287 0.040281
C11_2 C 0.7895(4) 0.02215(18) 0.1881(3)
H8_2 H 0.758668 0.000339 0.230467
C13_2 C 0.2763(3) 0.09852(17) 0.0841(3)
H10_2 H 0.314496 0.055471 0.075550
C14_2 C 0.1388(3) 0.17396(18) 0.0902(3)
H11_2 H 0.062026 0.192628 0.086668
C15_2 C 0.2514(3) 0.21429(17) 0.1195(3)
H12_2 H 0.266054 0.264698 0.138171
N1_2 N 0.7005(2) 0.34592(14) 0.2232(2)
N3_2 N 0.7580(2) 0.09192(14) 0.1391(2)
N4_2 N 0.8954(2) 0.04051(14) 0.0952(2)
N5_2 N 0.3401(2) 0.16506(13) 0.1158(2)
C12_2 C 0.8751(4) 0.99213(18) 0.1612(3)
H9_2 H 0.914926 0.945139 0.184251
N17 N 0.5349(4) 0.89251(19) 0.1746(3)
O1 O 0.6473(3) 0.88966(17) 0.2688(3)
O2 O 0.4847(3) 0.95269(17) 0.1292(3)
O3 O 0.4749(4) 0.83424(18) 0.1280(3)
N17_2 N 0.4651(4) 0.39251(19) 0.3254(3)
O1_2 O 0.3527(3) 0.38966(17) 0.2312(3)
O2_2 O 0.5153(3) 0.45269(17) 0.3708(3)
O3_2 O 0.5251(4) 0.33424(18) 0.3720(3)
N17_3 N 0.4651(4) 0.10749(19) 0.8254(3)
O1_3 O 0.3527(3) 0.11034(17) 0.7312(3)
O2_3 O 0.5153(3) 0.04731(17) 0.8708(3)
O3_3 O 0.5251(4) 0.16576(18) 0.8720(3)
N17_4 N 0.5349(4) 0.60749(19) 0.6746(3)
O1_4 O 0.6473(3) 0.61034(17) 0.7688(3)
O2_4 O 0.4847(3) 0.54731(17) 0.6292(3)
O3_4 O 0.4749(4) 0.66576(18) 0.6280(3)
loop_
_geom_bond_atom_site_label_1
_geom_bond_atom_site_label_2
_geom_bond_site_symmetry_1
_geom_bond_site_symmetry_2
Cd3 N4 1_555 1_555
C1 C2 1_555 1_555
C2 H1 1_555 1_555
C3 C2 1_555 1_555
C4 C3 1_555 1_555
H2 C4 1_555 1_555
C5 C4 1_555 1_555
C6 C1 1_555 1_555
H3 C6 1_555 1_555
C7 H4 1_555 1_555
C9 C8 1_555 1_555
H6 C9 1_555 1_555
C10 H7 1_555 1_555
C11 H8 1_555 1_555
C12 C11 1_555 1_555
H9 C12 1_555 1_555
C13 H10 1_555 1_555
C14 H11 1_555 1_555
C15 C14 1_555 1_555
H12 C15 1_555 1_555
N1 C1 1_555 1_555
N2 C7 1_555 1_555
N3 C3 1_555 1_555
N4 C10 1_555 1_555
N5 C5 1_555 1_555
N6 C13 1_555 1_555
Cd3_2 N6 1_555 1_555
Cd5_3 N2 1_555 1_555
N14 Cd3 1_555 1_555
N16 Cd3 1_555 1_555
C5 C6 1_555 1_555
C7 N1 1_555 1_555
C8 N2 1_555 1_555
C9 N1 1_555 1_555
C10 N3 1_555 1_555
C11 N3 1_555 1_555
C12 N4 1_555 1_555
C13 N5 1_555 1_555
C14 N6 1_555 1_555
C15 N5 1_555 1_555
C16 C17 1_555 1_555
C17 H13 1_555 1_555
C18 C17 1_555 1_555
C19 C18 1_555 1_555
H14 C19 1_555 1_555
C20 C19 1_555 1_555
C21 C16 1_555 1_555
H15 C21 1_555 1_555
C22 H16 1_555 1_555
C24 C23 1_555 1_555
H18 C24 1_555 1_555
C25 H19 1_555 1_555
C26 H20 1_555 1_555
C27 C26 1_555 1_555
H21 C27 1_555 1_555
C28 H22 1_555 1_555
C29 H23 1_555 1_555
C30 C29 1_555 1_555
H24 C30 1_555 1_555
N7 C16 1_555 1_555
N8 C22 1_555 1_555
N9 C18 1_555 1_555
N10 Cd3_2 1_555 1_555
N11 C20 1_555 1_555
N16 C28 1_555 1_555
Cd5_6 N8 1_555 1_555
N13 Cd3_2 1_555 1_555
C20 C21 1_555 1_555
C22 N7 1_555 1_555
C23 N8 1_555 1_555
C24 N7 1_555 1_555
C25 N9 1_555 1_555
C25 N10 1_555 1_555
C26 N9 1_555 1_555
C27 N10 1_555 1_555
C28 N11 1_555 1_555
C29 N16 1_555 1_555
C30 N11 1_555 1_555
N15 Cd5 1_555 1_555
H21_2 C27_2 1_555 1_555
C16_2 C17_2 1_555 1_555
C17_2 H13_2 1_555 1_555
C18_2 C17_2 1_555 1_555
C19_2 C18_2 1_555 1_555
H14_2 C19_2 1_555 1_555
C20_2 C19_2 1_555 1_555
C21_2 C16_2 1_555 1_555
H15_2 C21_2 1_555 1_555
C22_2 H16_2 1_555 1_555
C23_2 H17_2 1_555 1_555
C24_2 C23_2 1_555 1_555
H18_2 C24_2 1_555 1_555
C25_2 H19_2 1_555 1_555
C26_2 H20_2 1_555 1_555
C28_2 H22_2 1_555 1_555
C29_2 H23_2 1_555 1_555
C30_2 C29_2 1_555 1_555
H24_2 C30_2 1_555 1_555
N7_2 C16_2 1_555 1_555
N14 C22_2 1_555 1_555
N9_2 C18_2 1_555 1_555
N10_2 Cd5_4 1_555 1_555
N11_2 C20_2 1_555 1_555
N12 C28_2 1_555 1_555
Cd5_8 N12 1_555 1_555
C20_2 C21_2 1_555 1_555
C22_2 N7_2 1_555 1_555
C23_2 N14 1_555 1_555
C24_2 N7_2 1_555 1_555
C25_2 N9_2 1_555 1_555
C25_2 N10_2 1_555 1_555
C26_2 N9_2 1_555 1_555
C28_2 N11_2 1_555 1_555
C29_2 N12 1_555 1_555
C30_2 N11_2 1_555 1_555
Cd5_5 N4_2 1_555 1_555
C1_2 C2_2 1_555 1_555
C2_2 H1_2 1_555 1_555
C3_2 C2_2 1_555 1_555
C4_2 C3_2 1_555 1_555
H2_2 C4_2 1_555 1_555
C5_2 C4_2 1_555 1_555
C6_2 C1_2 1_555 1_555
H3_2 C6_2 1_555 1_555
C7_2 H4_2 1_555 1_555
C8_2 H5_2 1_555 1_555
C9_2 C8_2 1_555 1_555
H6_2 C9_2 1_555 1_555
C10_2 H7_2 1_555 1_555
C11_2 H8_2 1_555 1_555
C13_2 H10_2 1_555 1_555
C14_2 H11_2 1_555 1_555
C15_2 C14_2 1_555 1_555
H12_2 C15_2 1_555 1_555
N1_2 C1_2 1_555 1_555
N13 C7_2 1_555 1_555
N3_2 C3_2 1_555 1_555
N4_2 C10_2 1_555 1_555
N5_2 C5_2 1_555 1_555
N15 C13_2 1_555 1_555
C5_2 C6_2 1_555 1_555
C7_2 N1_2 1_555 1_555
C8_2 N13 1_555 1_555
C9_2 N1_2 1_555 1_555
C10_2 N3_2 1_555 1_555
C11_2 N3_2 1_555 1_555
C13_2 N5_2 1_555 1_555
C14_2 N15 1_555 1_555
C15_2 N5_2 1_555 1_555
H9_2 C12_2 1_555 1_555
N17 O1 1_555 1_555
O2 N17 1_555 1_555
O3 N17 1_555 1_555
N17_2 O1_2 1_555 1_555
O2_2 N17_2 1_555 1_555
O3_2 N17_2 1_555 1_555
N17_3 O1_3 1_555 1_555
O2_3 N17_3 1_555 1_555
O3_3 N17_3 1_555 1_555
N17_4 O1_4 1_555 1_555
O2_4 N17_4 1_555 1_555
O3_4 N17_4 1_555 1_555

#END
