
###############################################################################
#
# This file contains modified crystal structure data generated from the
# MOF subset of the Cambridge Structural Database (CSD) v543 
# hosted by the Cambridge Crystallographic Data Centre (CCDC).
#
# This work is licensed under the Creative Commons
# Attribution-NonCommercial-ShareAlike 4.0 International License.
# To view a copy of this license, visit
# http://creativecommons.org/licenses/by-nc-sa/4.0/
# or send a letter to
# Creative Commons, PO Box 1866, Mountain View, CA 94042, USA.
#
# CIF created using the CSD Python API on 29 September 2022
# The structure has been converted into the P1 space group
# The structure has a 3D framework
# The original CSD entry ZOXFAV is in the monoclinic crystal system
# The framework has been calculated to contain at least 10.0% void space
# The void calculation uses a probe of radius 1.32A, grid spacing 0.4
# The framework is charged, counterions have been retained in the structure
#
###############################################################################

data_ZOXFAV
_chemical_formula_moiety         '(C60 H48 Cd5 N26 O12 6+)n'
_symmetry_cell_setting           triclinic
_symmetry_space_group_name_H-M   'P 1'
_symmetry_Int_Tables_number      1
_space_group_name_Hall           'P 1'
loop_
_symmetry_equiv_pos_site_id
_symmetry_equiv_pos_as_xyz
1 x,y,z
_cell_length_a                   11.629(4)
_cell_length_b                   17.902(5)
_cell_length_c                   12.380(4)
_cell_angle_alpha                90
_cell_angle_beta                 109.051(6)
_cell_angle_gamma                90
_cell_volume                     2436.13
loop_
_atom_site_label
_atom_site_type_symbol
_atom_site_fract_x
_atom_site_fract_y
_atom_site_fract_z
Cd1 Cd 0.0000 0.0000 0.0000
H8 H 0.0250 0.1927 0.0856
N16 N 0.20001(17) 0.04058(12) 0.09516(18)
Cd1_2 Cd 0.0000 0.0000 1.0000
Cd1_3 Cd 0.0000 1.0000 0.0000
N13 N 0.0058(2) 0.93490(11) 0.16596(18)
Cd1_4 Cd -0.0000 1.0000 1.0000
N15 N 0.08662(18) 0.89811(11) 0.93304(19)
Cd1_5 Cd 1.0000 0.0000 0.0000
C1 C 0.6648(2) 0.18314(14) 0.1363(2)
C2 C 0.6467(2) 0.25565(13) 0.1661(2)
H1 H 0.7052 0.2923 0.1723
C3 C 0.5396(2) 0.27225(13) 0.1865(2)
C4 C 0.4517(2) 0.21918(14) 0.1775(2)
H2 H 0.3799 0.2314 0.1911
C5 C 0.4721(2) 0.14712(13) 0.1477(2)
C6 C 0.5785(2) 0.12757(13) 0.1264(2)
H3 H 0.5913 0.0790 0.1062
C7 C 0.5041(2) 0.36271(14) 0.3223(2)
H4 H 0.4990 0.3274 0.3756
C8 C 0.5070(3) 0.46621(15) 0.2367(2)
H5 H 0.5038 0.5171 0.2206
C9 C 0.5248(3) 0.41175(15) 0.1683(2)
H6 H 0.5361 0.4179 0.0979
C10 C 0.8080(2) 0.09836(13) 0.0836(2)
H7 H 0.7612 0.0552 0.0745
C11 C 0.9520(2) 0.17405(14) 0.0900(2)
C12 C 0.8692(2) 0.21429(14) 0.1198(2)
H9 H 0.8738 0.2647 0.1391
C13 C 0.2608(2) 0.09996(14) 0.0829(2)
H10 H 0.2256 0.1421 0.0414
C15 C 0.3985(2) 0.02239(16) 0.1884(3)
H12 H 0.4719 0.0007 0.2313
N1 N 0.4942(2) 0.43490(11) 0.33404(18)
N2 N 0.52279(18) 0.34606(11) 0.22323(18)
N3 N 0.91338(18) 0.10189(11) 0.06696(19)
N4 N 0.77568(16) 0.16531(11) 0.11584(17)
N6 N 0.38147(17) 0.09179(11) 0.13861(18)
Cd4 Cd 0.5000 0.5000 0.5000
Cd1_6 Cd 1.0000 0.0000 1.0000
C29 C 0.7144(3) 0.00809(15) 0.8381(3)
H23 H 0.7314 0.0549 0.8145
N14 N 0.9942(2) 0.06510(11) 0.83404(18)
Cd1_7 Cd 1.0000 1.0000 0.0000
C14 C 0.2856(3) 0.99191(15) 0.1619(3)
H11 H 0.2686 0.9451 0.1855
Cd1_8 Cd 1.0000 1.0000 1.0000
C16 C 0.3352(2) 0.81686(14) 0.8637(2)
C17 C 0.3533(2) 0.74435(13) 0.8339(2)
H13 H 0.2948 0.7077 0.8277
C18 C 0.4604(2) 0.72775(13) 0.8135(2)
C19 C 0.5483(2) 0.78082(14) 0.8225(2)
H14 H 0.6201 0.7686 0.8089
C20 C 0.5279(2) 0.85288(13) 0.8523(2)
C21 C 0.4215(2) 0.87243(13) 0.8736(2)
H15 H 0.4087 0.9210 0.8938
C22 C 0.4959(2) 0.63729(14) 0.6777(2)
H16 H 0.5010 0.6726 0.6244
C23 C 0.4930(3) 0.53379(15) 0.7633(2)
H17 H 0.4962 0.4829 0.7794
C24 C 0.4752(3) 0.58825(15) 0.8317(2)
H18 H 0.4639 0.5821 0.9021
C25 C 0.1920(2) 0.90164(13) 0.9164(2)
H19 H 0.2388 0.9448 0.9255
C26 C 0.0480(2) 0.82595(14) 0.9100(2)
C27 C 0.1308(2) 0.78571(14) 0.8802(2)
H21 H 0.1262 0.7353 0.8609
C28 C 0.7392(2) 0.90004(14) 0.9171(2)
H22 H 0.7744 0.8579 0.9586
C30 C 0.6015(2) 0.97761(16) 0.8116(3)
H24 H 0.5281 0.9993 0.7687
N7 N 0.5058(2) 0.56510(11) 0.66596(18)
N8 N 0.47721(18) 0.65394(11) 0.77677(18)
N10 N 0.22432(16) 0.83469(11) 0.88416(17)
N11 N 0.79999(17) 0.95942(12) 0.90484(18)
N12 N 0.61853(17) 0.90821(11) 0.86139(18)
H20 H 0.9750 0.8073 0.9144
C4_2 C 0.0483(2) 0.71918(14) 0.3225(2)
H2_2 H 0.1201 0.7314 0.3089
C5_2 C 0.0279(2) 0.64712(13) 0.3523(2)
H4_2 H 0.0010 0.8274 0.1244
C13_2 C 0.2392(2) 0.59996(14) 0.4171(2)
H10_2 H 0.2744 0.6421 0.4586
C14_2 C 0.2144(3) 0.49191(15) 0.3381(3)
H11_2 H 0.2314 0.4451 0.3145
C15_2 C 0.1015(2) 0.52239(16) 0.3116(3)
H12_2 H 0.0281 0.5007 0.2687
N5 N 0.29999(17) 0.54058(12) 0.40484(18)
N6_2 N 0.11853(17) 0.59179(11) 0.36139(18)
C16_2 C 0.1648(2) 0.31686(14) 0.6363(2)
C17_2 C 0.1467(2) 0.24435(13) 0.6661(2)
H13_2 H 0.2052 0.2077 0.6723
C18_2 C 0.0396(2) 0.22775(13) 0.6865(2)
C21_2 C 0.0785(2) 0.37243(13) 0.6264(2)
H15_2 H 0.0913 0.4210 0.6062
C22_2 C 0.0041(2) 0.13729(14) 0.8223(2)
C23_2 C 0.0070(3) 0.03379(15) 0.7367(2)
C24_2 C 0.0248(3) 0.08825(15) 0.6683(2)
H18_2 H 0.0361 0.0821 0.5979
C25_2 C 0.3080(2) 0.40164(13) 0.5836(2)
H19_2 H 0.2612 0.4448 0.5745
C26_2 C 0.4520(2) 0.32595(14) 0.5900(2)
H20_2 H 0.5250 0.3073 0.5856
C27_2 C 0.3692(2) 0.28571(14) 0.6198(2)
H21_2 H 0.3738 0.2353 0.6391
N8_2 N 0.02279(18) 0.15394(11) 0.72323(18)
N9 N 0.41338(18) 0.39811(11) 0.56696(19)
N10_2 N 0.27568(16) 0.33469(11) 0.61584(17)
H17_2 H 0.0038 0.9829 0.7206
H5_2 H 0.9962 0.0171 0.2794
C1_2 C 0.8352(2) 0.68314(14) 0.3637(2)
C2_2 C 0.8533(2) 0.75565(13) 0.3339(2)
H1_2 H 0.7948 0.7923 0.3277
C3_2 C 0.9604(2) 0.77225(13) 0.3135(2)
C6_2 C 0.9215(2) 0.62757(13) 0.3736(2)
H3_2 H 0.9087 0.5790 0.3938
C7_2 C 0.9959(2) 0.86271(14) 0.1777(2)
C8_2 C 0.9930(3) 0.96621(15) 0.2633(2)
C9_2 C 0.9752(3) 0.91175(15) 0.3317(2)
H6_2 H 0.9639 0.9179 0.4021
C10_2 C 0.6920(2) 0.59836(13) 0.4164(2)
H7_2 H 0.7388 0.5552 0.4255
C11_2 C 0.5480(2) 0.67405(14) 0.4100(2)
H8_2 H 0.4750 0.6927 0.4144
C12_2 C 0.6308(2) 0.71429(14) 0.3802(2)
H9_2 H 0.6262 0.7647 0.3609
N2_2 N 0.97721(18) 0.84606(11) 0.27677(18)
N3_2 N 0.58662(18) 0.60189(11) 0.43304(19)
N4_2 N 0.72432(16) 0.66531(11) 0.38416(17)
C19_2 C 0.9517(2) 0.28082(14) 0.6775(2)
H14_2 H 0.8799 0.2686 0.6911
C20_2 C 0.9721(2) 0.35288(13) 0.6477(2)
H16_2 H 0.9990 0.1726 0.8756
C28_2 C 0.7608(2) 0.40004(14) 0.5829(2)
H22_2 H 0.7256 0.3579 0.5414
C29_2 C 0.7856(3) 0.50809(15) 0.6619(3)
H23_2 H 0.7686 0.5549 0.6855
C30_2 C 0.8985(2) 0.47761(16) 0.6884(3)
H24_2 H 0.9719 0.4993 0.7313
N11_2 N 0.70001(17) 0.45942(12) 0.59516(18)
N12_2 N 0.88147(17) 0.40821(11) 0.63861(18)
N17 N 0.3610(2) 0.10778(15) 0.8257(3)
O1 O 0.3563(3) 0.04741(15) 0.8708(3)
O2 O 0.3798(3) 0.11094(15) 0.7319(3)
O3 O 0.3469(3) 0.16652(16) 0.8726(3)
N17_2 N 0.1390(2) 0.60778(15) 0.6743(3)
O1_2 O 0.1437(3) 0.54741(15) 0.6292(3)
O2_2 O 0.1202(3) 0.61094(15) 0.7681(3)
O3_2 O 0.1531(3) 0.66652(16) 0.6274(3)
N17_3 N 0.6390(2) 0.89222(15) 0.1743(3)
O1_3 O 0.6437(3) 0.95259(15) 0.1292(3)
O2_3 O 0.6202(3) 0.88906(15) 0.2681(3)
O3_3 O 0.6531(3) 0.83348(16) 0.1274(3)
N17_4 N 0.8610(2) 0.39222(15) 0.3257(3)
O1_4 O 0.8563(3) 0.45259(15) 0.3708(3)
O2_4 O 0.8798(3) 0.38906(15) 0.2319(3)
O3_4 O 0.8469(3) 0.33348(16) 0.3726(3)
loop_
_geom_bond_atom_site_label_1
_geom_bond_atom_site_label_2
_geom_bond_site_symmetry_1
_geom_bond_site_symmetry_2
N16 Cd1 1_555 1_555
N13 Cd1_3 1_555 1_555
N15 Cd1_4 1_555 1_555
Cd1_5 N3 1_555 1_555
C1 C2 1_555 1_555
C2 H1 1_555 1_555
C3 C2 1_555 1_555
C4 C3 1_555 1_555
H2 C4 1_555 1_555
C5 C4 1_555 1_555
C6 C1 1_555 1_555
H3 C6 1_555 1_555
C7 H4 1_555 1_555
C8 H5 1_555 1_555
C9 C8 1_555 1_555
H6 C9 1_555 1_555
C10 H7 1_555 1_555
C12 C11 1_555 1_555
H9 C12 1_555 1_555
C13 H10 1_555 1_555
H12 C15 1_555 1_555
N1 C7 1_555 1_555
N2 C3 1_555 1_555
N3 C10 1_555 1_555
N4 C1 1_555 1_555
N16 C13 1_555 1_555
N6 C5 1_555 1_555
Cd4 N1 1_555 1_555
C5 C6 1_555 1_555
C7 N2 1_555 1_555
C8 N1 1_555 1_555
C9 N2 1_555 1_555
C10 N4 1_555 1_555
C11 N3 1_555 1_555
C12 N4 1_555 1_555
C13 N6 1_555 1_555
C15 N6 1_555 1_555
C29 H23 1_555 1_555
N14 Cd1_6 1_555 1_555
C14 H11 1_555 1_555
C16 C17 1_555 1_555
C17 H13 1_555 1_555
C18 C17 1_555 1_555
C19 C18 1_555 1_555
H14 C19 1_555 1_555
C20 C19 1_555 1_555
C21 C16 1_555 1_555
H15 C21 1_555 1_555
C22 H16 1_555 1_555
C23 H17 1_555 1_555
C24 C23 1_555 1_555
H18 C24 1_555 1_555
C25 H19 1_555 1_555
C27 C26 1_555 1_555
H21 C27 1_555 1_555
C28 H22 1_555 1_555
H24 C30 1_555 1_555
N7 C22 1_555 1_555
N8 C18 1_555 1_555
N15 C25 1_555 1_555
N10 C16 1_555 1_555
N11 Cd1_8 1_555 1_555
N12 C20 1_555 1_555
Cd4 N7 1_555 1_555
C20 C21 1_555 1_555
C22 N8 1_555 1_555
C23 N7 1_555 1_555
C24 N8 1_555 1_555
C25 N10 1_555 1_555
C26 N15 1_555 1_555
C27 N10 1_555 1_555
C28 N11 1_555 1_555
C28 N12 1_555 1_555
C30 N12 1_555 1_555
H2_2 C4_2 1_555 1_555
C5_2 C4_2 1_555 1_555
C13_2 H10_2 1_555 1_555
C14_2 H11_2 1_555 1_555
C15_2 C14_2 1_555 1_555
H12_2 C15_2 1_555 1_555
N5 C13_2 1_555 1_555
N6_2 C5_2 1_555 1_555
C16_2 C17_2 1_555 1_555
C17_2 H13_2 1_555 1_555
C18_2 C17_2 1_555 1_555
C21_2 C16_2 1_555 1_555
H15_2 C21_2 1_555 1_555
C24_2 C23_2 1_555 1_555
H18_2 C24_2 1_555 1_555
C25_2 H19_2 1_555 1_555
C26_2 H20_2 1_555 1_555
C27_2 C26_2 1_555 1_555
H21_2 C27_2 1_555 1_555
N8_2 C18_2 1_555 1_555
N9 C25_2 1_555 1_555
N10_2 C16_2 1_555 1_555
Cd4 N5 1_555 1_555
C13_2 N6_2 1_555 1_555
C14_2 N5 1_555 1_555
C15_2 N6_2 1_555 1_555
C22_2 N8_2 1_555 1_555
C24_2 N8_2 1_555 1_555
C25_2 N10_2 1_555 1_555
C26_2 N9 1_555 1_555
C27_2 N10_2 1_555 1_555
N9 Cd4 1_555 1_555
Cd4 N3_2 1_555 1_555
C1_2 C2_2 1_555 1_555
C2_2 H1_2 1_555 1_555
C3_2 C2_2 1_555 1_555
C6_2 C1_2 1_555 1_555
H3_2 C6_2 1_555 1_555
C9_2 C8_2 1_555 1_555
H6_2 C9_2 1_555 1_555
C10_2 H7_2 1_555 1_555
C11_2 H8_2 1_555 1_555
C12_2 C11_2 1_555 1_555
H9_2 C12_2 1_555 1_555
N2_2 C3_2 1_555 1_555
N3_2 C10_2 1_555 1_555
N4_2 C1_2 1_555 1_555
H14_2 C19_2 1_555 1_555
C20_2 C19_2 1_555 1_555
C28_2 H22_2 1_555 1_555
C29_2 H23_2 1_555 1_555
C30_2 C29_2 1_555 1_555
H24_2 C30_2 1_555 1_555
N11_2 Cd4 1_555 1_555
N12_2 C20_2 1_555 1_555
C7_2 N2_2 1_555 1_555
C9_2 N2_2 1_555 1_555
C10_2 N4_2 1_555 1_555
C11_2 N3_2 1_555 1_555
C12_2 N4_2 1_555 1_555
C28_2 N11_2 1_555 1_555
C28_2 N12_2 1_555 1_555
C29_2 N11_2 1_555 1_555
C30_2 N12_2 1_555 1_555
N17 O1 1_555 1_555
O2 N17 1_555 1_555
O3 N17 1_555 1_555
N17_2 O1_2 1_555 1_555
O2_2 N17_2 1_555 1_555
O3_2 N17_2 1_555 1_555
N17_3 O1_3 1_555 1_555
O2_3 N17_3 1_555 1_555
O3_3 N17_3 1_555 1_555
N17_4 O1_4 1_555 1_555
O2_4 N17_4 1_555 1_555
O3_4 N17_4 1_555 1_555

#END
