
###############################################################################
#
# This file contains modified crystal structure data generated from the
# MOF subset of the Cambridge Structural Database (CSD) v543 
# hosted by the Cambridge Crystallographic Data Centre (CCDC).
#
# This work is licensed under the Creative Commons
# Attribution-NonCommercial-ShareAlike 4.0 International License.
# To view a copy of this license, visit
# http://creativecommons.org/licenses/by-nc-sa/4.0/
# or send a letter to
# Creative Commons, PO Box 1866, Mountain View, CA 94042, USA.
#
# CIF created using the CSD Python API on 29 September 2022
# The structure has been converted into the P1 space group
# The structure has a 3D framework
# The original CSD entry ZOXFEZ01 is in the orthorhombic crystal system
# The framework has been calculated to contain at least 10.0% void space
# The void calculation uses a probe of radius 1.32A, grid spacing 0.4
# The framework is charged, counterions have been retained in the structure
#
###############################################################################

data_ZOXFEZ01
_chemical_formula_moiety         '(C120 H96 Cd7 Cl8 N48 O32 6+)n'
_symmetry_cell_setting           triclinic
_symmetry_space_group_name_H-M   'P 1'
_symmetry_Int_Tables_number      1
_space_group_name_Hall           'P 1'
loop_
_symmetry_equiv_pos_site_id
_symmetry_equiv_pos_as_xyz
1 x,y,z
_cell_length_a                   17.498(3)
_cell_length_b                   16.564(3)
_cell_length_c                   17.498
_cell_angle_alpha                90
_cell_angle_beta                 90
_cell_angle_gamma                90
_cell_volume                     5071.57
loop_
_atom_site_label
_atom_site_type_symbol
_atom_site_fract_x
_atom_site_fract_y
_atom_site_fract_z
Cd1 Cd 0.0000 0.5000 0.0000
N1 N 0.0708(3) 0.3935(3) 0.0491(3)
N2 N 0.1625(3) 0.3298(3) 0.1120(3)
N3 N 0.3963(3) 0.4629(3) 0.4170(3)
N4 N 0.3314(3) 0.4065(3) 0.3218(3)
N5 N 0.4485(3) 0.0771(3) 0.0996(3)
N6 N 0.3868(2) 0.1694(3) 0.1681(3)
C1 C 0.1335(3) 0.4018(3) 0.0905(3)
H1 H 0.1551 0.4513 0.1033
C2 C 0.0581(3) 0.3107(4) 0.0454(4)
H2 H 0.0173 0.2859 0.0209
C3 C 0.1155(4) 0.2715(4) 0.0838(4)
H3 H 0.1213 0.2160 0.0894
C4 C 0.2298(3) 0.3168(3) 0.1567(3)
C5 C 0.2475(3) 0.3695(3) 0.2161(3)
H4 H 0.2170 0.4143 0.2260
C6 C 0.3123(3) 0.3537(3) 0.2607(3)
C7 C 0.3588(3) 0.2879(4) 0.2454(3)
H5 H 0.4020 0.2780 0.2749
C8 C 0.3396(3) 0.2364(3) 0.1844(3)
C9 C 0.2752(3) 0.2502(3) 0.1402(3)
H6 H 0.2626 0.2155 0.1004
C10 C 0.4058(3) 0.1432(3) 0.0969(3)
H7 H 0.3908 0.1685 0.0519
C11 C 0.4197(4) 0.1166(4) 0.2187(4)
H8 H 0.4168 0.1192 0.2718
C12 C 0.4567(4) 0.0604(4) 0.1777(3)
H9 H 0.4837 0.0170 0.1979
C13 C 0.2852(4) 0.4670(4) 0.3523(4)
H10 H 0.2365 0.4817 0.3360
C14 C 0.3258(4) 0.5003(4) 0.4108(4)
H11 H 0.3087 0.5420 0.4420
C15 C 0.3971(3) 0.4072(3) 0.3632(3)
H12 H 0.4379 0.3724 0.3545
Cd3 Cd 0.5000 0.5000 0.5000
Cd5 Cd 0.5000 0.0000 0.0000
N16 N 0.0515(3) 0.5771(3) 0.0996(3)
Cd1_2 Cd -0.0000 0.5000 1.0000
Cd5_2 Cd 0.5000 0.0000 1.0000
N13 N 0.1037(3) 0.5371(3) 0.9170(3)
Cd5_3 Cd 0.5000 1.0000 0.0000
Cd5_4 Cd 0.5000 1.0000 1.0000
Cd1_3 Cd 1.0000 0.5000 0.0000
N14 N 0.8963(3) 0.4629(3) 0.0830(3)
Cd1_4 Cd 1.0000 0.5000 1.0000
N7 N 0.9292(3) 0.6065(3) 0.9509(3)
N8 N 0.8375(3) 0.6702(3) 0.8880(3)
N9 N 0.6037(3) 0.5371(3) 0.5830(3)
N10 N 0.6686(3) 0.5935(3) 0.6782(3)
N11 N 0.5515(3) 0.9229(3) 0.9004(3)
N12 N 0.6132(2) 0.8306(3) 0.8319(3)
C16 C 0.8665(3) 0.5982(3) 0.9095(3)
H13 H 0.8449 0.5487 0.8967
C17 C 0.9419(3) 0.6893(4) 0.9546(4)
H14 H 0.9827 0.7141 0.9791
C18 C 0.8845(4) 0.7285(4) 0.9162(4)
H15 H 0.8787 0.7840 0.9106
C19 C 0.7702(3) 0.6832(3) 0.8433(3)
C20 C 0.7525(3) 0.6305(3) 0.7839(3)
H16 H 0.7830 0.5857 0.7740
C21 C 0.6877(3) 0.6463(3) 0.7393(3)
C22 C 0.6412(3) 0.7121(4) 0.7546(3)
H17 H 0.5980 0.7220 0.7251
C23 C 0.6604(3) 0.7636(3) 0.8156(3)
C24 C 0.7248(3) 0.7498(3) 0.8598(3)
H18 H 0.7374 0.7845 0.8996
C25 C 0.5942(3) 0.8568(3) 0.9031(3)
H19 H 0.6092 0.8315 0.9481
C26 C 0.5803(4) 0.8834(4) 0.7813(4)
H20 H 0.5832 0.8808 0.7282
C27 C 0.5433(4) 0.9396(4) 0.8223(3)
H21 H 0.5163 0.9830 0.8021
C28 C 0.7148(4) 0.5330(4) 0.6477(4)
H22 H 0.7635 0.5183 0.6640
C29 C 0.6742(4) 0.4997(4) 0.5892(4)
H23 H 0.6913 0.4580 0.5580
C30 C 0.6029(3) 0.5928(3) 0.6368(3)
H24 H 0.5621 0.6276 0.6455
N15 N 0.9485(3) 0.4229(3) 0.9004(3)
Cd4 Cd -0.0000 0.0000 0.5000
Cd4_2 Cd -0.0000 1.0000 0.5000
N1_2 N 0.4292(3) 0.6065(3) 0.5491(3)
N2_2 N 0.3375(3) 0.6702(3) 0.6120(3)
N4_2 N 0.1686(3) 0.5935(3) 0.8218(3)
N5_2 N 0.0515(3) 0.9229(3) 0.5996(3)
N6_2 N 0.1132(2) 0.8306(3) 0.6681(3)
C1_2 C 0.3665(3) 0.5982(3) 0.5905(3)
H1_2 H 0.3449 0.5487 0.6033
C2_2 C 0.4419(3) 0.6893(4) 0.5454(4)
H2_2 H 0.4827 0.7141 0.5209
C3_2 C 0.3845(4) 0.7285(4) 0.5838(4)
H3_2 H 0.3787 0.7840 0.5894
C4_2 C 0.2702(3) 0.6832(3) 0.6567(3)
C5_2 C 0.2525(3) 0.6305(3) 0.7161(3)
H4_2 H 0.2830 0.5857 0.7260
C6_2 C 0.1877(3) 0.6463(3) 0.7607(3)
C7_2 C 0.1412(3) 0.7121(4) 0.7454(3)
H5_2 H 0.0980 0.7220 0.7749
C8_2 C 0.1604(3) 0.7636(3) 0.6844(3)
C9_2 C 0.2248(3) 0.7498(3) 0.6402(3)
H6_2 H 0.2374 0.7845 0.6004
C10_2 C 0.0942(3) 0.8568(3) 0.5969(3)
H7_2 H 0.1092 0.8315 0.5519
C11_2 C 0.0803(4) 0.8834(4) 0.7187(4)
H8_2 H 0.0832 0.8808 0.7718
C12_2 C 0.0433(4) 0.9396(4) 0.6777(3)
H9_2 H 0.0163 0.9830 0.6979
C13_2 C 0.2148(4) 0.5330(4) 0.8523(4)
H10_2 H 0.2635 0.5183 0.8360
C14_2 C 0.1742(4) 0.4997(4) 0.9108(4)
H11_2 H 0.1913 0.4580 0.9420
C15_2 C 0.1029(3) 0.5928(3) 0.8632(3)
H12_2 H 0.0621 0.6276 0.8545
N7_2 N 0.5708(3) 0.3935(3) 0.4509(3)
N8_2 N 0.6625(3) 0.3298(3) 0.3880(3)
N10_2 N 0.8314(3) 0.4065(3) 0.1782(3)
N11_2 N 0.9485(3) 0.0771(3) 0.4004(3)
N12_2 N 0.8868(2) 0.1694(3) 0.3319(3)
C16_2 C 0.6335(3) 0.4018(3) 0.4095(3)
H13_2 H 0.6551 0.4513 0.3967
C17_2 C 0.5581(3) 0.3107(4) 0.4546(4)
H14_2 H 0.5173 0.2859 0.4791
C18_2 C 0.6155(4) 0.2715(4) 0.4162(4)
H15_2 H 0.6213 0.2160 0.4106
C19_2 C 0.7298(3) 0.3168(3) 0.3433(3)
C20_2 C 0.7475(3) 0.3695(3) 0.2839(3)
H16_2 H 0.7170 0.4143 0.2740
C21_2 C 0.8123(3) 0.3537(3) 0.2393(3)
C22_2 C 0.8588(3) 0.2879(4) 0.2546(3)
H17_2 H 0.9020 0.2780 0.2251
C23_2 C 0.8396(3) 0.2364(3) 0.3156(3)
C24_2 C 0.7752(3) 0.2502(3) 0.3598(3)
H18_2 H 0.7626 0.2155 0.3996
C25_2 C 0.9058(3) 0.1432(3) 0.4031(3)
H19_2 H 0.8908 0.1685 0.4481
C26_2 C 0.9197(4) 0.1166(4) 0.2813(4)
H20_2 H 0.9168 0.1192 0.2282
C27_2 C 0.9567(4) 0.0604(4) 0.3223(3)
H21_2 H 0.9837 0.0170 0.3021
C28_2 C 0.7852(4) 0.4670(4) 0.1477(4)
H22_2 H 0.7365 0.4817 0.1640
C29_2 C 0.8258(4) 0.5003(4) 0.0892(4)
H23_2 H 0.8087 0.5420 0.0580
C30_2 C 0.8971(3) 0.4072(3) 0.1368(3)
H24_2 H 0.9379 0.3724 0.1455
Cd4_3 Cd 1.0000 0.0000 0.5000
N15_2 N 0.5515(3) 0.5771(3) 0.4004(3)
N16_2 N 0.4485(3) 0.4229(3) 0.5996(3)
Cd4_4 Cd 1.0000 1.0000 0.5000
N7_3 N 0.0708(3) 0.1065(3) 0.5491(3)
N8_3 N 0.1625(3) 0.1702(3) 0.6120(3)
N9_2 N 0.3963(3) 0.0371(3) 0.9170(3)
N10_3 N 0.3314(3) 0.0935(3) 0.8218(3)
N12_3 N 0.3868(2) 0.3306(3) 0.6681(3)
C16_3 C 0.1335(3) 0.0982(3) 0.5905(3)
H13_3 H 0.1551 0.0487 0.6033
C17_3 C 0.0581(3) 0.1893(4) 0.5454(4)
H14_3 H 0.0173 0.2141 0.5209
C18_3 C 0.1155(4) 0.2285(4) 0.5838(4)
H15_3 H 0.1213 0.2840 0.5894
C19_3 C 0.2298(3) 0.1832(3) 0.6567(3)
C20_3 C 0.2475(3) 0.1305(3) 0.7161(3)
H16_3 H 0.2170 0.0857 0.7260
C21_3 C 0.3123(3) 0.1463(3) 0.7607(3)
C22_3 C 0.3588(3) 0.2121(4) 0.7454(3)
H17_3 H 0.4020 0.2220 0.7749
C23_3 C 0.3396(3) 0.2636(3) 0.6844(3)
C24_3 C 0.2752(3) 0.2498(3) 0.6402(3)
H18_3 H 0.2626 0.2845 0.6004
C25_3 C 0.4058(3) 0.3568(3) 0.5969(3)
H19_3 H 0.3908 0.3315 0.5519
C26_3 C 0.4197(4) 0.3834(4) 0.7187(4)
H20_3 H 0.4168 0.3808 0.7718
C27_3 C 0.4567(4) 0.4396(4) 0.6777(3)
H21_3 H 0.4837 0.4830 0.6979
C28_3 C 0.2852(4) 0.0330(4) 0.8523(4)
H22_3 H 0.2365 0.0183 0.8360
C30_3 C 0.3971(3) 0.0928(3) 0.8632(3)
H24_3 H 0.4379 0.1276 0.8545
C29_3 C 0.3258(4) 0.9997(4) 0.9108(4)
H23_3 H 0.3087 0.9580 0.9420
N14_2 N 0.1037(3) 0.9629(3) 0.4170(3)
C14_3 C 0.6742(4) 0.0003(4) 0.0892(4)
H11_3 H 0.6913 0.0420 0.0580
N13_2 N 0.8963(3) 0.0371(3) 0.5830(3)
N1_3 N 0.9292(3) 0.8935(3) 0.4509(3)
N2_3 N 0.8375(3) 0.8298(3) 0.3880(3)
N3_2 N 0.6037(3) 0.9629(3) 0.0830(3)
N4_3 N 0.6686(3) 0.9065(3) 0.1782(3)
N6_3 N 0.6132(2) 0.6694(3) 0.3319(3)
C1_3 C 0.8665(3) 0.9018(3) 0.4095(3)
H1_3 H 0.8449 0.9513 0.3967
C2_3 C 0.9419(3) 0.8107(4) 0.4546(4)
H2_3 H 0.9827 0.7859 0.4791
C3_3 C 0.8845(4) 0.7715(4) 0.4162(4)
H3_3 H 0.8787 0.7160 0.4106
C4_3 C 0.7702(3) 0.8168(3) 0.3433(3)
C5_3 C 0.7525(3) 0.8695(3) 0.2839(3)
H4_3 H 0.7830 0.9143 0.2740
C6_3 C 0.6877(3) 0.8537(3) 0.2393(3)
C7_3 C 0.6412(3) 0.7879(4) 0.2546(3)
H5_3 H 0.5980 0.7780 0.2251
C8_3 C 0.6604(3) 0.7364(3) 0.3156(3)
C9_3 C 0.7248(3) 0.7502(3) 0.3598(3)
H6_3 H 0.7374 0.7155 0.3996
C10_3 C 0.5942(3) 0.6432(3) 0.4031(3)
H7_3 H 0.6092 0.6685 0.4481
C11_3 C 0.5803(4) 0.6166(4) 0.2813(4)
H8_3 H 0.5832 0.6192 0.2282
C12_3 C 0.5433(4) 0.5604(4) 0.3223(3)
H9_3 H 0.5163 0.5170 0.3021
C13_3 C 0.7148(4) 0.9670(4) 0.1477(4)
H10_3 H 0.7635 0.9817 0.1640
C15_3 C 0.6029(3) 0.9072(3) 0.1368(3)
H12_3 H 0.5621 0.8724 0.1455
C29_4 C 0.1742(4) 0.0003(4) 0.4108(4)
H23_4 H 0.1913 0.0420 0.4420
N1_4 N 0.5708(3) 0.1065(3) 0.9509(3)
N2_4 N 0.6625(3) 0.1702(3) 0.8880(3)
N4_4 N 0.8314(3) 0.0935(3) 0.6782(3)
N6_4 N 0.8868(2) 0.3306(3) 0.8319(3)
C1_4 C 0.6335(3) 0.0982(3) 0.9095(3)
H1_4 H 0.6551 0.0487 0.8967
C2_4 C 0.5581(3) 0.1893(4) 0.9546(4)
H2_4 H 0.5173 0.2141 0.9791
C3_4 C 0.6155(4) 0.2285(4) 0.9162(4)
H3_4 H 0.6213 0.2840 0.9106
C4_4 C 0.7298(3) 0.1832(3) 0.8433(3)
C5_4 C 0.7475(3) 0.1305(3) 0.7839(3)
H4_4 H 0.7170 0.0857 0.7740
C6_4 C 0.8123(3) 0.1463(3) 0.7393(3)
C7_4 C 0.8588(3) 0.2121(4) 0.7546(3)
H5_4 H 0.9020 0.2220 0.7251
C8_4 C 0.8396(3) 0.2636(3) 0.8156(3)
C9_4 C 0.7752(3) 0.2498(3) 0.8598(3)
H6_4 H 0.7626 0.2845 0.8996
C10_4 C 0.9058(3) 0.3568(3) 0.9031(3)
H7_4 H 0.8908 0.3315 0.9481
C11_4 C 0.9197(4) 0.3834(4) 0.7813(4)
H8_4 H 0.9168 0.3808 0.7282
C12_4 C 0.9567(4) 0.4396(4) 0.8223(3)
H9_4 H 0.9837 0.4830 0.8021
C13_4 C 0.7852(4) 0.0330(4) 0.6477(4)
H10_4 H 0.7365 0.0183 0.6640
C15_4 C 0.8971(3) 0.0928(3) 0.6368(3)
H12_4 H 0.9379 0.1276 0.6455
N7_4 N 0.4292(3) 0.8935(3) 0.0491(3)
N8_4 N 0.3375(3) 0.8298(3) 0.1120(3)
N10_4 N 0.1686(3) 0.9065(3) 0.3218(3)
N12_4 N 0.1132(2) 0.6694(3) 0.1681(3)
C16_4 C 0.3665(3) 0.9018(3) 0.0905(3)
H13_4 H 0.3449 0.9513 0.1033
C17_4 C 0.4419(3) 0.8107(4) 0.0454(4)
H14_4 H 0.4827 0.7859 0.0209
C18_4 C 0.3845(4) 0.7715(4) 0.0838(4)
H15_4 H 0.3787 0.7160 0.0894
C19_4 C 0.2702(3) 0.8168(3) 0.1567(3)
C20_4 C 0.2525(3) 0.8695(3) 0.2161(3)
H16_4 H 0.2830 0.9143 0.2260
C21_4 C 0.1877(3) 0.8537(3) 0.2607(3)
C22_4 C 0.1412(3) 0.7879(4) 0.2454(3)
H17_4 H 0.0980 0.7780 0.2749
C23_4 C 0.1604(3) 0.7364(3) 0.1844(3)
C24_4 C 0.2248(3) 0.7502(3) 0.1402(3)
H18_4 H 0.2374 0.7155 0.1004
C25_4 C 0.0942(3) 0.6432(3) 0.0969(3)
H19_4 H 0.1092 0.6685 0.0519
C26_4 C 0.0803(4) 0.6166(4) 0.2187(4)
H20_4 H 0.0832 0.6192 0.2718
C27_4 C 0.0433(4) 0.5604(4) 0.1777(3)
H21_4 H 0.0163 0.5170 0.1979
C28_4 C 0.2148(4) 0.9670(4) 0.3523(4)
H22_4 H 0.2635 0.9817 0.3360
C30_4 C 0.1029(3) 0.9072(3) 0.3632(3)
H24_4 H 0.0621 0.8724 0.3545
C14_4 C 0.8258(4) 0.9997(4) 0.5892(4)
H11_4 H 0.8087 0.9580 0.5580
Cl1 Cl 0.36491(15) 0.17051(14) 0.45359(13)
O1 O 0.4057(14) 0.1514(15) 0.3960(7)
O2 O 0.4109(5) 0.1726(5) 0.5208(4)
O3 O 0.3021(8) 0.1278(8) 0.4770(11)
O4 O 0.3356(7) 0.2485(6) 0.4409(5)
O2_2 O 0.0891(5) 0.8274(5) 0.0208(4)
Cl1_2 Cl 0.13509(15) 0.82949(14) 0.95359(13)
O1_2 O 0.0943(14) 0.8486(15) 0.8960(7)
O3_2 O 0.1979(8) 0.8722(8) 0.9770(11)
O4_2 O 0.1644(7) 0.7515(6) 0.9409(5)
Cl1_3 Cl 0.63509(15) 0.67051(14) 0.04641(13)
O1_3 O 0.5943(14) 0.6514(15) 0.1040(7)
O3_3 O 0.6979(8) 0.6278(8) 0.0230(11)
O4_3 O 0.6644(7) 0.7485(6) 0.0591(5)
O2_3 O 0.5891(5) 0.6726(5) 0.9792(4)
Cl1_4 Cl 0.86491(15) 0.32949(14) 0.54641(13)
O1_4 O 0.9057(14) 0.3486(15) 0.6040(7)
O2_4 O 0.9109(5) 0.3274(5) 0.4792(4)
O3_4 O 0.8021(8) 0.3722(8) 0.5230(11)
O4_4 O 0.8356(7) 0.2515(6) 0.5591(5)
Cl1_5 Cl 0.63509(15) 0.82949(14) 0.54641(13)
O1_5 O 0.5943(14) 0.8486(15) 0.6040(7)
O2_5 O 0.5891(5) 0.8274(5) 0.4792(4)
O3_5 O 0.6979(8) 0.8722(8) 0.5230(11)
O4_5 O 0.6644(7) 0.7515(6) 0.5591(5)
Cl1_6 Cl 0.86491(15) 0.17051(14) 0.04641(13)
O1_6 O 0.9057(14) 0.1514(15) 0.1040(7)
O3_6 O 0.8021(8) 0.1278(8) 0.0230(11)
O4_6 O 0.8356(7) 0.2485(6) 0.0591(5)
O2_6 O 0.9109(5) 0.1726(5) 0.9792(4)
O2_7 O 0.4109(5) 0.3274(5) 0.0208(4)
Cl1_7 Cl 0.36491(15) 0.32949(14) 0.95359(13)
O1_7 O 0.4057(14) 0.3486(15) 0.8960(7)
O3_7 O 0.3021(8) 0.3722(8) 0.9770(11)
O4_7 O 0.3356(7) 0.2515(6) 0.9409(5)
Cl1_8 Cl 0.13509(15) 0.67051(14) 0.45359(13)
O1_8 O 0.0943(14) 0.6514(15) 0.3960(7)
O2_8 O 0.0891(5) 0.6726(5) 0.5208(4)
O3_8 O 0.1979(8) 0.6278(8) 0.4770(11)
O4_8 O 0.1644(7) 0.7485(6) 0.4409(5)
loop_
_geom_bond_atom_site_label_1
_geom_bond_atom_site_label_2
_geom_bond_site_symmetry_1
_geom_bond_site_symmetry_2
Cd1 N1 1_555 1_555
N1 C1 1_555 1_555
N2 C1 1_555 1_555
N3 C14 1_555 1_555
N4 C6 1_555 1_555
N5 C10 1_555 1_555
N6 C8 1_555 1_555
C1 H1 1_555 1_555
C2 N1 1_555 1_555
H2 C2 1_555 1_555
C3 N2 1_555 1_555
H3 C3 1_555 1_555
C4 N2 1_555 1_555
C5 C4 1_555 1_555
H4 C5 1_555 1_555
C6 C5 1_555 1_555
C7 C6 1_555 1_555
H5 C7 1_555 1_555
C8 C7 1_555 1_555
C9 C4 1_555 1_555
H6 C9 1_555 1_555
C10 N6 1_555 1_555
H7 C10 1_555 1_555
C11 N6 1_555 1_555
H8 C11 1_555 1_555
C12 N5 1_555 1_555
H9 C12 1_555 1_555
C13 N4 1_555 1_555
H10 C13 1_555 1_555
C14 C13 1_555 1_555
H11 C14 1_555 1_555
C15 N3 1_555 1_555
H12 C15 1_555 1_555
Cd3 N3 1_555 1_555
Cd5 N5 1_555 1_555
N16 Cd1 1_555 1_555
N4 C15 1_555 1_555
C2 C3 1_555 1_555
C8 C9 1_555 1_555
C11 C12 1_555 1_555
N13 Cd1_2 1_555 1_555
N14 Cd1_3 1_555 1_555
N7 Cd1_4 1_555 1_555
N8 C16 1_555 1_555
N9 C29 1_555 1_555
N10 C21 1_555 1_555
N11 C25 1_555 1_555
N12 C23 1_555 1_555
C16 N7 1_555 1_555
H13 C16 1_555 1_555
C17 N7 1_555 1_555
H14 C17 1_555 1_555
C18 N8 1_555 1_555
H15 C18 1_555 1_555
C19 N8 1_555 1_555
C20 C19 1_555 1_555
H16 C20 1_555 1_555
C21 C20 1_555 1_555
C22 C21 1_555 1_555
H17 C22 1_555 1_555
C23 C22 1_555 1_555
C24 C19 1_555 1_555
H18 C24 1_555 1_555
C25 N12 1_555 1_555
H19 C25 1_555 1_555
C26 N12 1_555 1_555
H20 C26 1_555 1_555
C27 N11 1_555 1_555
H21 C27 1_555 1_555
C28 N10 1_555 1_555
H22 C28 1_555 1_555
C29 C28 1_555 1_555
H23 C29 1_555 1_555
C30 N9 1_555 1_555
H24 C30 1_555 1_555
Cd3 N9 1_555 1_555
Cd5_4 N11 1_555 1_555
N15 Cd1_4 1_555 1_555
N10 C30 1_555 1_555
C17 C18 1_555 1_555
C23 C24 1_555 1_555
C26 C27 1_555 1_555
Cd3 N1_2 1_555 1_555
N1_2 C1_2 1_555 1_555
N2_2 C1_2 1_555 1_555
N13 C14_2 1_555 1_555
N4_2 C6_2 1_555 1_555
N5_2 C10_2 1_555 1_555
N6_2 C8_2 1_555 1_555
C1_2 H1_2 1_555 1_555
C2_2 N1_2 1_555 1_555
H2_2 C2_2 1_555 1_555
C3_2 N2_2 1_555 1_555
H3_2 C3_2 1_555 1_555
C4_2 N2_2 1_555 1_555
C5_2 C4_2 1_555 1_555
H4_2 C5_2 1_555 1_555
C6_2 C5_2 1_555 1_555
C7_2 C6_2 1_555 1_555
H5_2 C7_2 1_555 1_555
C8_2 C7_2 1_555 1_555
C9_2 C4_2 1_555 1_555
H6_2 C9_2 1_555 1_555
C10_2 N6_2 1_555 1_555
H7_2 C10_2 1_555 1_555
C11_2 N6_2 1_555 1_555
H8_2 C11_2 1_555 1_555
C12_2 N5_2 1_555 1_555
H9_2 C12_2 1_555 1_555
C13_2 N4_2 1_555 1_555
H10_2 C13_2 1_555 1_555
C14_2 C13_2 1_555 1_555
H11_2 C14_2 1_555 1_555
C15_2 N13 1_555 1_555
H12_2 C15_2 1_555 1_555
N7_2 Cd3 1_555 1_555
N8_2 C16_2 1_555 1_555
N14 C29_2 1_555 1_555
N10_2 C21_2 1_555 1_555
N11_2 C25_2 1_555 1_555
N12_2 C23_2 1_555 1_555
C16_2 N7_2 1_555 1_555
H13_2 C16_2 1_555 1_555
C17_2 N7_2 1_555 1_555
H14_2 C17_2 1_555 1_555
C18_2 N8_2 1_555 1_555
H15_2 C18_2 1_555 1_555
C19_2 N8_2 1_555 1_555
C20_2 C19_2 1_555 1_555
H16_2 C20_2 1_555 1_555
C21_2 C20_2 1_555 1_555
C22_2 C21_2 1_555 1_555
H17_2 C22_2 1_555 1_555
C23_2 C22_2 1_555 1_555
C24_2 C19_2 1_555 1_555
H18_2 C24_2 1_555 1_555
C25_2 N12_2 1_555 1_555
H19_2 C25_2 1_555 1_555
C26_2 N12_2 1_555 1_555
H20_2 C26_2 1_555 1_555
C27_2 N11_2 1_555 1_555
H21_2 C27_2 1_555 1_555
C28_2 N10_2 1_555 1_555
H22_2 C28_2 1_555 1_555
C29_2 C28_2 1_555 1_555
H23_2 C29_2 1_555 1_555
C30_2 N14 1_555 1_555
H24_2 C30_2 1_555 1_555
Cd4_3 N11_2 1_555 1_555
Cd4_2 N5_2 1_555 1_555
N15_2 Cd3 1_555 1_555
N16_2 Cd3 1_555 1_555
N4_2 C15_2 1_555 1_555
C2_2 C3_2 1_555 1_555
C8_2 C9_2 1_555 1_555
C11_2 C12_2 1_555 1_555
N10_2 C30_2 1_555 1_555
C17_2 C18_2 1_555 1_555
C23_2 C24_2 1_555 1_555
C26_2 C27_2 1_555 1_555
N7_3 Cd4 1_555 1_555
N8_3 C16_3 1_555 1_555
N10_3 C21_3 1_555 1_555
N16_2 C25_3 1_555 1_555
N12_3 C23_3 1_555 1_555
C16_3 N7_3 1_555 1_555
H13_3 C16_3 1_555 1_555
C17_3 N7_3 1_555 1_555
H14_3 C17_3 1_555 1_555
C18_3 N8_3 1_555 1_555
H15_3 C18_3 1_555 1_555
C19_3 N8_3 1_555 1_555
C20_3 C19_3 1_555 1_555
H16_3 C20_3 1_555 1_555
C21_3 C20_3 1_555 1_555
C22_3 C21_3 1_555 1_555
H17_3 C22_3 1_555 1_555
C23_3 C22_3 1_555 1_555
C24_3 C19_3 1_555 1_555
H18_3 C24_3 1_555 1_555
C25_3 N12_3 1_555 1_555
H19_3 C25_3 1_555 1_555
C26_3 N12_3 1_555 1_555
H20_3 C26_3 1_555 1_555
C27_3 N16_2 1_555 1_555
H21_3 C27_3 1_555 1_555
C28_3 N10_3 1_555 1_555
H22_3 C28_3 1_555 1_555
C30_3 N9_2 1_555 1_555
H24_3 C30_3 1_555 1_555
Cd5_2 N9_2 1_555 1_555
N10_3 C30_3 1_555 1_555
C17_3 C18_3 1_555 1_555
C23_3 C24_3 1_555 1_555
C26_3 C27_3 1_555 1_555
H23_3 C29_3 1_555 1_555
N14_2 Cd4_2 1_555 1_555
H11_3 C14_3 1_555 1_555
N13_2 Cd4_3 1_555 1_555
Cd4_4 N1_3 1_555 1_555
N1_3 C1_3 1_555 1_555
N2_3 C1_3 1_555 1_555
N4_3 C6_3 1_555 1_555
N15_2 C10_3 1_555 1_555
N6_3 C8_3 1_555 1_555
C1_3 H1_3 1_555 1_555
C2_3 N1_3 1_555 1_555
H2_3 C2_3 1_555 1_555
C3_3 N2_3 1_555 1_555
H3_3 C3_3 1_555 1_555
C4_3 N2_3 1_555 1_555
C5_3 C4_3 1_555 1_555
H4_3 C5_3 1_555 1_555
C6_3 C5_3 1_555 1_555
C7_3 C6_3 1_555 1_555
H5_3 C7_3 1_555 1_555
C8_3 C7_3 1_555 1_555
C9_3 C4_3 1_555 1_555
H6_3 C9_3 1_555 1_555
C10_3 N6_3 1_555 1_555
H7_3 C10_3 1_555 1_555
C11_3 N6_3 1_555 1_555
H8_3 C11_3 1_555 1_555
C12_3 N15_2 1_555 1_555
H9_3 C12_3 1_555 1_555
C13_3 N4_3 1_555 1_555
H10_3 C13_3 1_555 1_555
C15_3 N3_2 1_555 1_555
H12_3 C15_3 1_555 1_555
Cd5_3 N3_2 1_555 1_555
N4_3 C15_3 1_555 1_555
C2_3 C3_3 1_555 1_555
C8_3 C9_3 1_555 1_555
C11_3 C12_3 1_555 1_555
H23_4 C29_4 1_555 1_555
Cd5_2 N1_4 1_555 1_555
N1_4 C1_4 1_555 1_555
N2_4 C1_4 1_555 1_555
N4_4 C6_4 1_555 1_555
N15 C10_4 1_555 1_555
N6_4 C8_4 1_555 1_555
C1_4 H1_4 1_555 1_555
C2_4 N1_4 1_555 1_555
H2_4 C2_4 1_555 1_555
C3_4 N2_4 1_555 1_555
H3_4 C3_4 1_555 1_555
C4_4 N2_4 1_555 1_555
C5_4 C4_4 1_555 1_555
H4_4 C5_4 1_555 1_555
C6_4 C5_4 1_555 1_555
C7_4 C6_4 1_555 1_555
H5_4 C7_4 1_555 1_555
C8_4 C7_4 1_555 1_555
C9_4 C4_4 1_555 1_555
H6_4 C9_4 1_555 1_555
C10_4 N6_4 1_555 1_555
H7_4 C10_4 1_555 1_555
C11_4 N6_4 1_555 1_555
H8_4 C11_4 1_555 1_555
C12_4 N15 1_555 1_555
H9_4 C12_4 1_555 1_555
C13_4 N4_4 1_555 1_555
H10_4 C13_4 1_555 1_555
C15_4 N13_2 1_555 1_555
H12_4 C15_4 1_555 1_555
N4_4 C15_4 1_555 1_555
C2_4 C3_4 1_555 1_555
C8_4 C9_4 1_555 1_555
C11_4 C12_4 1_555 1_555
N7_4 Cd5_3 1_555 1_555
N8_4 C16_4 1_555 1_555
N10_4 C21_4 1_555 1_555
N16 C25_4 1_555 1_555
N12_4 C23_4 1_555 1_555
C16_4 N7_4 1_555 1_555
H13_4 C16_4 1_555 1_555
C17_4 N7_4 1_555 1_555
H14_4 C17_4 1_555 1_555
C18_4 N8_4 1_555 1_555
H15_4 C18_4 1_555 1_555
C19_4 N8_4 1_555 1_555
C20_4 C19_4 1_555 1_555
H16_4 C20_4 1_555 1_555
C21_4 C20_4 1_555 1_555
C22_4 C21_4 1_555 1_555
H17_4 C22_4 1_555 1_555
C23_4 C22_4 1_555 1_555
C24_4 C19_4 1_555 1_555
H18_4 C24_4 1_555 1_555
C25_4 N12_4 1_555 1_555
H19_4 C25_4 1_555 1_555
C26_4 N12_4 1_555 1_555
H20_4 C26_4 1_555 1_555
C27_4 N16 1_555 1_555
H21_4 C27_4 1_555 1_555
C28_4 N10_4 1_555 1_555
H22_4 C28_4 1_555 1_555
C30_4 N14_2 1_555 1_555
H24_4 C30_4 1_555 1_555
N10_4 C30_4 1_555 1_555
C17_4 C18_4 1_555 1_555
C23_4 C24_4 1_555 1_555
C26_4 C27_4 1_555 1_555
H11_4 C14_4 1_555 1_555
Cl1 O1 1_555 1_555
O2 Cl1 1_555 1_555
O3 Cl1 1_555 1_555
O4 Cl1 1_555 1_555
Cl1_2 O1_2 1_555 1_555
O3_2 Cl1_2 1_555 1_555
O4_2 Cl1_2 1_555 1_555
Cl1_3 O1_3 1_555 1_555
O3_3 Cl1_3 1_555 1_555
O4_3 Cl1_3 1_555 1_555
Cl1_4 O1_4 1_555 1_555
O2_4 Cl1_4 1_555 1_555
O3_4 Cl1_4 1_555 1_555
O4_4 Cl1_4 1_555 1_555
Cl1_5 O1_5 1_555 1_555
O2_5 Cl1_5 1_555 1_555
O3_5 Cl1_5 1_555 1_555
O4_5 Cl1_5 1_555 1_555
Cl1_6 O1_6 1_555 1_555
O3_6 Cl1_6 1_555 1_555
O4_6 Cl1_6 1_555 1_555
Cl1_7 O1_7 1_555 1_555
O3_7 Cl1_7 1_555 1_555
O4_7 Cl1_7 1_555 1_555
Cl1_8 O1_8 1_555 1_555
O2_8 Cl1_8 1_555 1_555
O3_8 Cl1_8 1_555 1_555
O4_8 Cl1_8 1_555 1_555

#END
