
###############################################################################
#
# This file contains modified crystal structure data generated from the
# MOF subset of the Cambridge Structural Database (CSD) v543 
# hosted by the Cambridge Crystallographic Data Centre (CCDC).
#
# This work is licensed under the Creative Commons
# Attribution-NonCommercial-ShareAlike 4.0 International License.
# To view a copy of this license, visit
# http://creativecommons.org/licenses/by-nc-sa/4.0/
# or send a letter to
# Creative Commons, PO Box 1866, Mountain View, CA 94042, USA.
#
# CIF created using the CSD Python API on 29 September 2022
# The structure has been converted into the P1 space group
# The structure has a 3D framework
# The original CSD entry ZOYWOC is in the tetragonal crystal system
# The framework has been calculated to contain at least 10.0% void space
# The void calculation uses a probe of radius 1.32A, grid spacing 0.4
#
###############################################################################

data_ZOYWOC
_chemical_formula_moiety         '(C96 H148 Mn8 O56)n'
_symmetry_cell_setting           triclinic
_symmetry_space_group_name_H-M   'P 1'
_symmetry_Int_Tables_number      1
_space_group_name_Hall           'P 1'
loop_
_symmetry_equiv_pos_site_id
_symmetry_equiv_pos_as_xyz
1 x,y,z
_cell_length_a                   22.3208(4)
_cell_length_b                   22.3208(4)
_cell_length_c                   8.1027(2)
_cell_angle_alpha                90
_cell_angle_beta                 90
_cell_angle_gamma                90
_cell_volume                     4036.91
loop_
_atom_site_label
_atom_site_type_symbol
_atom_site_fract_x
_atom_site_fract_y
_atom_site_fract_z
C7 C 0.16498(17) 0.49358(17) 0.0255(4)
H9 H 0.175960 0.403894 0.005931
C9 C 0.13009(19) 0.49183(18) 0.1897(5)
C10 C 0.0741(2) 0.4522(2) 0.1666(6)
H10 H 0.049373 0.468657 0.080964
H11 H 0.086237 0.412372 0.136463
H12 H 0.051881 0.450773 0.267935
C11 C 0.1084(3) 0.5538(2) 0.2432(7)
H13 H 0.083597 0.570592 0.158296
H14 H 0.085686 0.550227 0.343370
H15 H 0.142302 0.579364 0.261720
C12 C 0.1692(2) 0.4658(3) 0.3250(6)
H16 H 0.183076 0.426815 0.292407
H17 H 0.202988 0.491581 0.343332
H18 H 0.146372 0.462444 0.424981
O8 O 0.22619(11) 0.21331(10) 0.0091(3)
Mn1 Mn 0.25586(2) 0.24377(2) 0.75903(6)
O1 O 0.28669(10) 0.27381(11) 0.5091(3)
H1 H 0.323810 0.267100 0.500010
H2 H 0.271520 0.308870 0.512390
O2 O 0.23449(14) 0.33478(12) 0.8242(3)
O3 O 0.26286(18) 0.38228(13) 0.5957(3)
O4 O 0.16723(13) 0.23245(16) 0.6540(3)
H3 H 0.140660 0.205270 0.669530
H4 H 0.161680 0.240360 0.552810
O5 O 0.34448(13) 0.25583(15) 0.8629(3)
H5 H 0.372730 0.281710 0.845290
H6 H 0.350940 0.246050 0.962200
O6 O 0.25034(18) 0.60479(13) 0.5777(3)
O7 O 0.22394(13) 0.65239(12) 0.8060(3)
C1 C 0.24021(18) 0.38206(16) 0.7373(5)
C2 C 0.23037(18) 0.60541(16) 0.7214(5)
C3 C 0.21850(18) 0.44007(16) 0.8098(5)
C4 C 0.23174(18) 0.49340(15) 0.7307(4)
H7 H 0.252746 0.493283 0.631571
C5 C 0.21330(18) 0.54710(17) 0.8009(4)
C6 C 0.18009(18) 0.54650(17) 0.9461(5)
H8 H 0.167646 0.582701 0.991404
C8 C 0.18507(18) 0.44011(18) 0.9550(5)
Mn2 Mn 0.24414(2) 0.74377(2) 0.74097(6)
Mn3 Mn 0.25623(2) 0.24414(2) 0.25903(6)
O9 O 0.27606(13) 0.15239(12) 0.6940(3)
C7_2 C 0.83502(17) 0.50642(17) 0.0255(4)
H9_2 H 0.824040 0.596106 0.005931
C9_2 C 0.86991(19) 0.50817(18) 0.1897(5)
C10_2 C 0.9259(2) 0.5478(2) 0.1666(6)
H10_2 H 0.950627 0.531343 0.080964
H11_2 H 0.913763 0.587628 0.136463
H12_2 H 0.948119 0.549227 0.267935
C11_2 C 0.8916(3) 0.4462(2) 0.2432(7)
H13_2 H 0.916403 0.429408 0.158296
H14_2 H 0.914314 0.449773 0.343370
H15_2 H 0.857698 0.420636 0.261720
C12_2 C 0.8308(2) 0.5342(3) 0.3250(6)
H16_2 H 0.816924 0.573185 0.292407
H17_2 H 0.797012 0.508419 0.343332
H18_2 H 0.853628 0.537556 0.424981
O8_2 O 0.77381(11) 0.78669(10) 0.0091(3)
Mn1_2 Mn 0.74414(2) 0.75623(2) 0.75903(6)
O1_2 O 0.71331(10) 0.72619(11) 0.5091(3)
H1_2 H 0.676190 0.732900 0.500010
H2_2 H 0.728480 0.691130 0.512390
O2_2 O 0.76551(14) 0.66522(12) 0.8242(3)
O3_2 O 0.73714(18) 0.61772(13) 0.5957(3)
O4_2 O 0.83277(13) 0.76755(16) 0.6540(3)
H3_2 H 0.859340 0.794730 0.669530
H4_2 H 0.838320 0.759640 0.552810
O5_2 O 0.65552(13) 0.74417(15) 0.8629(3)
H5_2 H 0.627270 0.718290 0.845290
H6_2 H 0.649060 0.753950 0.962200
O6_2 O 0.74966(18) 0.39521(13) 0.5777(3)
O7_2 O 0.77606(13) 0.34761(12) 0.8060(3)
C1_2 C 0.75979(18) 0.61794(16) 0.7373(5)
C2_2 C 0.76963(18) 0.39459(16) 0.7214(5)
C3_2 C 0.78150(18) 0.55993(16) 0.8098(5)
C4_2 C 0.76826(18) 0.50660(15) 0.7307(4)
H7_2 H 0.747254 0.506717 0.631571
C5_2 C 0.78670(18) 0.45290(17) 0.8009(4)
C6_2 C 0.81991(18) 0.45350(17) 0.9461(5)
H8_2 H 0.832354 0.417299 0.991404
C8_2 C 0.81493(18) 0.55989(18) 0.9550(5)
Mn2_2 Mn 0.75586(2) 0.25623(2) 0.74097(6)
Mn3_2 Mn 0.74377(2) 0.75586(2) 0.25903(6)
O9_2 O 0.72394(13) 0.84761(12) 0.6940(3)
Mn1_3 Mn 0.24377(2) 0.74414(2) 0.24097(6)
O1_3 O 0.27381(11) 0.71331(10) 0.4909(3)
H1_3 H 0.267100 0.676190 0.499990
H2_3 H 0.308870 0.728480 0.487610
O2_3 O 0.33478(12) 0.76551(14) 0.1758(3)
O3_3 O 0.38228(13) 0.73714(18) 0.4043(3)
O4_3 O 0.23245(16) 0.83277(13) 0.3460(3)
H3_3 H 0.205270 0.859340 0.330470
H4_3 H 0.240360 0.838320 0.447190
O5_3 O 0.25583(15) 0.65552(13) 0.1371(3)
H5_3 H 0.281710 0.627270 0.154710
H6_3 H 0.246050 0.649060 0.037800
O6_3 O 0.60479(13) 0.74966(18) 0.4223(3)
O7_3 O 0.65239(12) 0.77606(13) 0.1940(3)
C1_3 C 0.38206(16) 0.75979(18) 0.2627(5)
C2_3 C 0.60541(16) 0.76963(18) 0.2786(5)
C3_3 C 0.44007(16) 0.78150(18) 0.1902(5)
C4_3 C 0.49340(15) 0.76826(18) 0.2693(4)
H7_3 H 0.493283 0.747254 0.368429
C5_3 C 0.54710(17) 0.78670(18) 0.1991(4)
C6_3 C 0.54650(17) 0.81991(18) 0.0539(5)
H8_3 H 0.582701 0.832354 0.008596
C8_3 C 0.44011(18) 0.81493(18) 0.0450(5)
O9_3 O 0.15239(12) 0.72394(13) 0.3060(3)
C7_3 C 0.49358(17) 0.83502(17) 0.9745(4)
H9_3 H 0.403894 0.824040 0.994069
C9_3 C 0.49183(18) 0.86991(19) 0.8103(5)
C10_3 C 0.4522(2) 0.9259(2) 0.8334(6)
H10_3 H 0.468657 0.950627 0.919036
H11_3 H 0.412372 0.913763 0.863537
H12_3 H 0.450773 0.948119 0.732065
C11_3 C 0.5538(2) 0.8916(3) 0.7568(7)
H13_3 H 0.570592 0.916403 0.841704
H14_3 H 0.550227 0.914314 0.656630
H15_3 H 0.579364 0.857698 0.738280
C12_3 C 0.4658(3) 0.8308(2) 0.6750(6)
H16_3 H 0.426815 0.816924 0.707593
H17_3 H 0.491581 0.797012 0.656668
H18_3 H 0.462444 0.853628 0.575019
O8_3 O 0.21331(10) 0.77381(11) 0.9909(3)
Mn1_4 Mn 0.75623(2) 0.25586(2) 0.24097(6)
O1_4 O 0.72619(11) 0.28669(10) 0.4909(3)
H1_4 H 0.732900 0.323810 0.499990
H2_4 H 0.691130 0.271520 0.487610
O2_4 O 0.66522(12) 0.23449(14) 0.1758(3)
O3_4 O 0.61772(13) 0.26286(18) 0.4043(3)
O4_4 O 0.76755(16) 0.16723(13) 0.3460(3)
H3_4 H 0.794730 0.140660 0.330470
H4_4 H 0.759640 0.161680 0.447190
O5_4 O 0.74417(15) 0.34448(13) 0.1371(3)
H5_4 H 0.718290 0.372730 0.154710
H6_4 H 0.753950 0.350940 0.037800
O6_4 O 0.39521(13) 0.25034(18) 0.4223(3)
O7_4 O 0.34761(12) 0.22394(13) 0.1940(3)
C1_4 C 0.61794(16) 0.24021(18) 0.2627(5)
C2_4 C 0.39459(16) 0.23037(18) 0.2786(5)
C3_4 C 0.55993(16) 0.21850(18) 0.1902(5)
C4_4 C 0.50660(15) 0.23174(18) 0.2693(4)
H7_4 H 0.506717 0.252746 0.368429
C5_4 C 0.45290(17) 0.21330(18) 0.1991(4)
C6_4 C 0.45350(17) 0.18009(18) 0.0539(5)
H8_4 H 0.417299 0.167646 0.008596
C8_4 C 0.55989(18) 0.18507(18) 0.0450(5)
O9_4 O 0.84761(12) 0.27606(13) 0.3060(3)
C7_4 C 0.50642(17) 0.16498(17) 0.9745(4)
H9_4 H 0.596106 0.175960 0.994069
C9_4 C 0.50817(18) 0.13009(19) 0.8103(5)
C10_4 C 0.5478(2) 0.0741(2) 0.8334(6)
H10_4 H 0.531343 0.049373 0.919036
H11_4 H 0.587628 0.086237 0.863537
H12_4 H 0.549227 0.051881 0.732065
C11_4 C 0.4462(2) 0.1084(3) 0.7568(7)
H13_4 H 0.429408 0.083597 0.841704
H14_4 H 0.449773 0.085686 0.656630
H15_4 H 0.420636 0.142302 0.738280
C12_4 C 0.5342(3) 0.1692(2) 0.6750(6)
H16_4 H 0.573185 0.183076 0.707593
H17_4 H 0.508419 0.202988 0.656668
H18_4 H 0.537556 0.146372 0.575019
O8_4 O 0.78669(10) 0.22619(11) 0.9909(3)
O6_5 O 0.24966(18) 0.10479(13) 0.9223(3)
C2_5 C 0.26963(18) 0.10541(16) 0.7786(5)
C5_5 C 0.28670(18) 0.04710(17) 0.6991(4)
C6_5 C 0.31991(18) 0.04650(17) 0.5539(5)
H8_5 H 0.332354 0.082701 0.508596
C11_5 C 0.3916(3) 0.0538(2) 0.2568(7)
H13_5 H 0.416403 0.070592 0.341704
H14_5 H 0.414314 0.050227 0.156630
H15_5 H 0.357698 0.079364 0.238280
H1_5 H 0.176190 0.767100 -0.000010
H1_6 H 0.176190 0.767100 0.999990
H2_5 H 0.228480 0.808870 0.987610
O2_5 O 0.26551(14) 0.83478(12) 0.6758(3)
O3_5 O 0.23714(18) 0.88228(13) 0.9043(3)
O4_5 O 0.33277(13) 0.73245(16) 0.8460(3)
H3_5 H 0.359340 0.705270 0.830470
H4_5 H 0.338320 0.740360 0.947190
O5_5 O 0.15552(13) 0.75583(15) 0.6371(3)
H5_5 H 0.127270 0.781710 0.654710
H6_5 H 0.149060 0.746050 0.537800
C1_5 C 0.25979(18) 0.88206(16) 0.7627(5)
C3_5 C 0.28150(18) 0.94007(16) 0.6902(5)
C4_5 C 0.26826(18) 0.99340(15) 0.7693(4)
H7_5 H 0.247254 0.993283 0.868429
C7_5 C 0.33502(17) 0.99358(17) 0.4745(4)
C8_5 C 0.31493(18) 0.94011(18) 0.5450(5)
H9_5 H 0.324040 0.903894 0.494069
C9_5 C 0.36991(19) 0.99183(18) 0.3103(5)
C10_5 C 0.4259(2) 0.9522(2) 0.3334(6)
H10_5 H 0.450627 0.968657 0.419036
H11_5 H 0.413763 0.912372 0.363537
H12_5 H 0.448119 0.950773 0.232065
C12_5 C 0.3308(2) 0.9658(3) 0.1750(6)
H16_5 H 0.316924 0.926815 0.207593
H17_5 H 0.297012 0.991581 0.156668
H18_5 H 0.353628 0.962444 0.075019
H1_7 H 0.823810 0.232900 -0.000010
H1_8 H 0.823810 0.232900 0.999990
H2_6 H 0.771520 0.191130 0.987610
O2_6 O 0.73449(14) 0.16522(12) 0.6758(3)
O3_6 O 0.76286(18) 0.11772(13) 0.9043(3)
O4_6 O 0.66723(13) 0.26755(16) 0.8460(3)
H3_6 H 0.640660 0.294730 0.830470
H4_6 H 0.661680 0.259640 0.947190
O5_6 O 0.84448(13) 0.24417(15) 0.6371(3)
H5_6 H 0.872730 0.218290 0.654710
H6_6 H 0.850940 0.253950 0.537800
C1_6 C 0.74021(18) 0.11794(16) 0.7627(5)
C3_6 C 0.71850(18) 0.05993(16) 0.6902(5)
C4_6 C 0.73174(18) 0.00660(15) 0.7693(4)
H7_6 H 0.752746 0.006717 0.868429
C7_6 C 0.66498(17) 0.00642(17) 0.4745(4)
C8_6 C 0.68507(18) 0.05989(18) 0.5450(5)
H9_6 H 0.675960 0.096106 0.494069
C9_6 C 0.63009(19) 0.00817(18) 0.3103(5)
C10_6 C 0.5741(2) 0.0478(2) 0.3334(6)
H10_6 H 0.549373 0.031343 0.419036
H11_6 H 0.586237 0.087628 0.363537
H12_6 H 0.551881 0.049227 0.232065
C12_6 C 0.6692(2) 0.0342(3) 0.1750(6)
H16_6 H 0.683076 0.073185 0.207593
H17_6 H 0.702988 0.008419 0.156668
H18_6 H 0.646372 0.037556 0.075019
O6_6 O 0.75034(18) 0.89521(13) 0.9223(3)
C2_6 C 0.73037(18) 0.89459(16) 0.7786(5)
C5_6 C 0.71330(18) 0.95290(17) 0.6991(4)
C6_6 C 0.68009(18) 0.95350(17) 0.5539(5)
H8_6 H 0.667646 0.917299 0.508596
C11_6 C 0.6084(3) 0.9462(2) 0.2568(7)
H13_6 H 0.583597 0.929408 0.341704
H14_6 H 0.585686 0.949773 0.156630
H15_6 H 0.642302 0.920636 0.238280
H1_9 H 0.232900 0.176190 0.000010
H2_7 H 0.191130 0.228480 0.012390
O2_7 O 0.16522(12) 0.26551(14) 0.3242(3)
O3_7 O 0.11772(13) 0.23714(18) 0.0957(3)
O4_7 O 0.26755(16) 0.33277(13) 0.1540(3)
H3_7 H 0.294730 0.359340 0.169530
H4_7 H 0.259640 0.338320 0.052810
O5_7 O 0.24417(15) 0.15552(13) 0.3629(3)
H5_7 H 0.218290 0.127270 0.345290
H6_7 H 0.253950 0.149060 0.462200
C1_7 C 0.11794(16) 0.25979(18) 0.2373(5)
C3_7 C 0.05993(16) 0.28150(18) 0.3098(5)
C4_7 C 0.00660(15) 0.26826(18) 0.2307(4)
H7_7 H 0.006717 0.247254 0.131571
C7_7 C 0.00642(17) 0.33502(17) 0.5255(4)
C8_7 C 0.05989(18) 0.31493(18) 0.4550(5)
H9_7 H 0.096106 0.324040 0.505931
C9_7 C 0.00817(18) 0.36991(19) 0.6897(5)
C10_7 C 0.0478(2) 0.4259(2) 0.6666(6)
H10_7 H 0.031343 0.450627 0.580964
H11_7 H 0.087628 0.413763 0.636463
H12_7 H 0.049227 0.448119 0.767935
C12_7 C 0.0342(3) 0.3308(2) 0.8250(6)
H16_7 H 0.073185 0.316924 0.792407
H17_7 H 0.008419 0.297012 0.843332
H18_7 H 0.037556 0.353628 0.924981
H1_10 H 0.232900 0.176190 1.000010
O6_7 O 0.89521(13) 0.24966(18) 0.0777(3)
C2_7 C 0.89459(16) 0.26963(18) 0.2214(5)
C5_7 C 0.95290(17) 0.28670(18) 0.3009(4)
C6_7 C 0.95350(17) 0.31991(18) 0.4461(5)
H8_7 H 0.917299 0.332354 0.491404
C11_7 C 0.9462(2) 0.3916(3) 0.7432(7)
H13_7 H 0.929408 0.416403 0.658296
H14_7 H 0.949773 0.414314 0.843370
H15_7 H 0.920636 0.357698 0.761720
O6_8 O 0.10479(13) 0.75034(18) 0.0777(3)
C2_8 C 0.10541(16) 0.73037(18) 0.2214(5)
C5_8 C 0.04710(17) 0.71330(18) 0.3009(4)
C6_8 C 0.04650(17) 0.68009(18) 0.4461(5)
H8_8 H 0.082701 0.667646 0.491404
C11_8 C 0.0538(2) 0.6084(3) 0.7432(7)
H13_8 H 0.070592 0.583597 0.658296
H14_8 H 0.050227 0.585686 0.843370
H15_8 H 0.079364 0.642302 0.761720
H1_11 H 0.767100 0.823810 0.000010
H2_8 H 0.808870 0.771520 0.012390
O2_8 O 0.83478(12) 0.73449(14) 0.3242(3)
O3_8 O 0.88228(13) 0.76286(18) 0.0957(3)
O4_8 O 0.73245(16) 0.66723(13) 0.1540(3)
H3_8 H 0.705270 0.640660 0.169530
H4_8 H 0.740360 0.661680 0.052810
O5_8 O 0.75583(15) 0.84448(13) 0.3629(3)
H5_8 H 0.781710 0.872730 0.345290
H6_8 H 0.746050 0.850940 0.462200
C1_8 C 0.88206(16) 0.74021(18) 0.2373(5)
C3_8 C 0.94007(16) 0.71850(18) 0.3098(5)
C4_8 C 0.99340(15) 0.73174(18) 0.2307(4)
H7_8 H 0.993283 0.752746 0.131571
C7_8 C 0.99358(17) 0.66498(17) 0.5255(4)
C8_8 C 0.94011(18) 0.68507(18) 0.4550(5)
H9_8 H 0.903894 0.675960 0.505931
C9_8 C 0.99183(18) 0.63009(19) 0.6897(5)
C10_8 C 0.9522(2) 0.5741(2) 0.6666(6)
H10_8 H 0.968657 0.549373 0.580964
H11_8 H 0.912372 0.586237 0.636463
H12_8 H 0.950773 0.551881 0.767935
C12_8 C 0.9658(3) 0.6692(2) 0.8250(6)
H16_8 H 0.926815 0.683076 0.792407
H17_8 H 0.991581 0.702988 0.843332
H18_8 H 0.962444 0.646372 0.924981
H1_12 H 0.767100 0.823810 1.000010
loop_
_geom_bond_atom_site_label_1
_geom_bond_atom_site_label_2
_geom_bond_site_symmetry_1
_geom_bond_site_symmetry_2
C9 C7 1_555 1_555
C10 C9 1_555 1_555
H10 C10 1_555 1_555
H11 C10 1_555 1_555
H12 C10 1_555 1_555
C11 C9 1_555 1_555
H13 C11 1_555 1_555
H14 C11 1_555 1_555
H15 C11 1_555 1_555
C12 C9 1_555 1_555
H16 C12 1_555 1_555
H17 C12 1_555 1_555
H18 C12 1_555 1_555
Mn1 O1 1_555 1_555
O1 H1 1_555 1_555
H2 O1 1_555 1_555
O2 Mn1 1_555 1_555
O3 C1 1_555 1_555
O4 Mn1 1_555 1_555
H3 O4 1_555 1_555
H4 O4 1_555 1_555
O5 Mn1 1_555 1_555
H5 O5 1_555 1_555
H6 O5 1_555 1_555
O6 C2 1_555 1_555
O7 C2 1_555 1_555
C1 O2 1_555 1_555
C2 C5 1_555 1_555
C3 C1 1_555 1_555
C4 C3 1_555 1_555
H7 C4 1_555 1_555
C5 C4 1_555 1_555
C6 C5 1_555 1_555
H8 C6 1_555 1_555
C8 C3 1_555 1_555
Mn2 O7 1_555 1_555
Mn3 O1 1_555 1_555
O9 Mn1 1_555 1_555
C9_2 C7_2 1_555 1_555
C10_2 C9_2 1_555 1_555
H10_2 C10_2 1_555 1_555
H11_2 C10_2 1_555 1_555
H12_2 C10_2 1_555 1_555
C11_2 C9_2 1_555 1_555
H13_2 C11_2 1_555 1_555
H14_2 C11_2 1_555 1_555
H15_2 C11_2 1_555 1_555
C12_2 C9_2 1_555 1_555
H16_2 C12_2 1_555 1_555
H17_2 C12_2 1_555 1_555
H18_2 C12_2 1_555 1_555
Mn1_2 O1_2 1_555 1_555
O1_2 H1_2 1_555 1_555
H2_2 O1_2 1_555 1_555
O2_2 Mn1_2 1_555 1_555
O3_2 C1_2 1_555 1_555
O4_2 Mn1_2 1_555 1_555
H3_2 O4_2 1_555 1_555
H4_2 O4_2 1_555 1_555
O5_2 Mn1_2 1_555 1_555
H5_2 O5_2 1_555 1_555
H6_2 O5_2 1_555 1_555
O6_2 C2_2 1_555 1_555
O7_2 C2_2 1_555 1_555
C1_2 O2_2 1_555 1_555
C2_2 C5_2 1_555 1_555
C3_2 C1_2 1_555 1_555
C4_2 C3_2 1_555 1_555
H7_2 C4_2 1_555 1_555
C5_2 C4_2 1_555 1_555
C6_2 C5_2 1_555 1_555
H8_2 C6_2 1_555 1_555
C8_2 C3_2 1_555 1_555
Mn2_2 O7_2 1_555 1_555
Mn3_2 O1_2 1_555 1_555
O9_2 Mn1_2 1_555 1_555
Mn1_3 O1_3 1_555 1_555
O1_3 H1_3 1_555 1_555
H2_3 O1_3 1_555 1_555
O2_3 Mn1_3 1_555 1_555
O3_3 C1_3 1_555 1_555
O4_3 Mn1_3 1_555 1_555
H3_3 O4_3 1_555 1_555
H4_3 O4_3 1_555 1_555
O5_3 Mn1_3 1_555 1_555
H5_3 O5_3 1_555 1_555
H6_3 O5_3 1_555 1_555
O6_3 C2_3 1_555 1_555
O7_3 C2_3 1_555 1_555
C1_3 O2_3 1_555 1_555
C2_3 C5_3 1_555 1_555
C3_3 C1_3 1_555 1_555
C4_3 C3_3 1_555 1_555
H7_3 C4_3 1_555 1_555
C5_3 C4_3 1_555 1_555
C6_3 C5_3 1_555 1_555
H8_3 C6_3 1_555 1_555
C8_3 C3_3 1_555 1_555
Mn3_2 O7_3 1_555 1_555
Mn2 O1_3 1_555 1_555
O9_3 Mn1_3 1_555 1_555
C9_3 C7_3 1_555 1_555
C10_3 C9_3 1_555 1_555
H10_3 C10_3 1_555 1_555
H11_3 C10_3 1_555 1_555
H12_3 C10_3 1_555 1_555
C11_3 C9_3 1_555 1_555
H13_3 C11_3 1_555 1_555
H14_3 C11_3 1_555 1_555
H15_3 C11_3 1_555 1_555
C12_3 C9_3 1_555 1_555
H16_3 C12_3 1_555 1_555
H17_3 C12_3 1_555 1_555
H18_3 C12_3 1_555 1_555
Mn1_4 O1_4 1_555 1_555
O1_4 H1_4 1_555 1_555
H2_4 O1_4 1_555 1_555
O2_4 Mn1_4 1_555 1_555
O3_4 C1_4 1_555 1_555
O4_4 Mn1_4 1_555 1_555
H3_4 O4_4 1_555 1_555
H4_4 O4_4 1_555 1_555
O5_4 Mn1_4 1_555 1_555
H5_4 O5_4 1_555 1_555
H6_4 O5_4 1_555 1_555
O6_4 C2_4 1_555 1_555
O7_4 C2_4 1_555 1_555
C1_4 O2_4 1_555 1_555
C2_4 C5_4 1_555 1_555
C3_4 C1_4 1_555 1_555
C4_4 C3_4 1_555 1_555
H7_4 C4_4 1_555 1_555
C5_4 C4_4 1_555 1_555
C6_4 C5_4 1_555 1_555
H8_4 C6_4 1_555 1_555
C8_4 C3_4 1_555 1_555
Mn3 O7_4 1_555 1_555
Mn2_2 O1_4 1_555 1_555
O9_4 Mn1_4 1_555 1_555
C9_4 C7_4 1_555 1_555
C10_4 C9_4 1_555 1_555
H10_4 C10_4 1_555 1_555
H11_4 C10_4 1_555 1_555
H12_4 C10_4 1_555 1_555
C11_4 C9_4 1_555 1_555
H13_4 C11_4 1_555 1_555
H14_4 C11_4 1_555 1_555
H15_4 C11_4 1_555 1_555
C12_4 C9_4 1_555 1_555
H16_4 C12_4 1_555 1_555
H17_4 C12_4 1_555 1_555
H18_4 C12_4 1_555 1_555
O6_5 C2_5 1_555 1_555
O9 C2_5 1_555 1_555
C2_5 C5_5 1_555 1_555
C6_5 C5_5 1_555 1_555
H8_5 C6_5 1_555 1_555
H13_5 C11_5 1_555 1_555
H14_5 C11_5 1_555 1_555
H15_5 C11_5 1_555 1_555
Mn2 O8_3 1_555 1_555
O8_3 H1_6 1_555 1_555
H2_5 O8_3 1_555 1_555
O2_5 Mn2 1_555 1_555
O3_5 C1_5 1_555 1_555
O4_5 Mn2 1_555 1_555
H3_5 O4_5 1_555 1_555
H4_5 O4_5 1_555 1_555
O5_5 Mn2 1_555 1_555
H5_5 O5_5 1_555 1_555
H6_5 O5_5 1_555 1_555
C1_5 O2_5 1_555 1_555
C3_5 C1_5 1_555 1_555
C4_5 C3_5 1_555 1_555
H7_5 C4_5 1_555 1_555
C8_5 C3_5 1_555 1_555
H9_5 C8_5 1_555 1_555
C9_5 C7_5 1_555 1_555
C10_5 C9_5 1_555 1_555
H10_5 C10_5 1_555 1_555
H11_5 C10_5 1_555 1_555
H12_5 C10_5 1_555 1_555
C12_5 C9_5 1_555 1_555
H16_5 C12_5 1_555 1_555
H17_5 C12_5 1_555 1_555
H18_5 C12_5 1_555 1_555
C7_5 C8_5 1_555 1_555
Mn2_2 O8_4 1_555 1_555
O8_4 H1_8 1_555 1_555
H2_6 O8_4 1_555 1_555
O2_6 Mn2_2 1_555 1_555
O3_6 C1_6 1_555 1_555
O4_6 Mn2_2 1_555 1_555
H3_6 O4_6 1_555 1_555
H4_6 O4_6 1_555 1_555
O5_6 Mn2_2 1_555 1_555
H5_6 O5_6 1_555 1_555
H6_6 O5_6 1_555 1_555
C1_6 O2_6 1_555 1_555
C3_6 C1_6 1_555 1_555
C4_6 C3_6 1_555 1_555
H7_6 C4_6 1_555 1_555
C8_6 C3_6 1_555 1_555
H9_6 C8_6 1_555 1_555
C9_6 C7_6 1_555 1_555
C10_6 C9_6 1_555 1_555
H10_6 C10_6 1_555 1_555
H11_6 C10_6 1_555 1_555
H12_6 C10_6 1_555 1_555
C12_6 C9_6 1_555 1_555
H16_6 C12_6 1_555 1_555
H17_6 C12_6 1_555 1_555
H18_6 C12_6 1_555 1_555
C7_6 C8_6 1_555 1_555
O6_6 C2_6 1_555 1_555
O9_2 C2_6 1_555 1_555
C2_6 C5_6 1_555 1_555
C6_6 C5_6 1_555 1_555
H8_6 C6_6 1_555 1_555
H13_6 C11_6 1_555 1_555
H14_6 C11_6 1_555 1_555
H15_6 C11_6 1_555 1_555
Mn3 O8 1_555 1_555
O8 H1_9 1_555 1_555
H2_7 O8 1_555 1_555
O2_7 Mn3 1_555 1_555
O3_7 C1_7 1_555 1_555
O4_7 Mn3 1_555 1_555
H3_7 O4_7 1_555 1_555
H4_7 O4_7 1_555 1_555
O5_7 Mn3 1_555 1_555
H5_7 O5_7 1_555 1_555
H6_7 O5_7 1_555 1_555
C1_7 O2_7 1_555 1_555
C3_7 C1_7 1_555 1_555
C4_7 C3_7 1_555 1_555
H7_7 C4_7 1_555 1_555
C8_7 C3_7 1_555 1_555
H9_7 C8_7 1_555 1_555
C9_7 C7_7 1_555 1_555
C10_7 C9_7 1_555 1_555
H10_7 C10_7 1_555 1_555
H11_7 C10_7 1_555 1_555
H12_7 C10_7 1_555 1_555
C12_7 C9_7 1_555 1_555
H16_7 C12_7 1_555 1_555
H17_7 C12_7 1_555 1_555
H18_7 C12_7 1_555 1_555
C7_7 C8_7 1_555 1_555
O6_7 C2_7 1_555 1_555
O9_4 C2_7 1_555 1_555
C2_7 C5_7 1_555 1_555
C6_7 C5_7 1_555 1_555
H8_7 C6_7 1_555 1_555
H13_7 C11_7 1_555 1_555
H14_7 C11_7 1_555 1_555
H15_7 C11_7 1_555 1_555
O6_8 C2_8 1_555 1_555
O9_3 C2_8 1_555 1_555
C2_8 C5_8 1_555 1_555
C6_8 C5_8 1_555 1_555
H8_8 C6_8 1_555 1_555
H13_8 C11_8 1_555 1_555
H14_8 C11_8 1_555 1_555
H15_8 C11_8 1_555 1_555
Mn3_2 O8_2 1_555 1_555
O8_2 H1_11 1_555 1_555
H2_8 O8_2 1_555 1_555
O2_8 Mn3_2 1_555 1_555
O3_8 C1_8 1_555 1_555
O4_8 Mn3_2 1_555 1_555
H3_8 O4_8 1_555 1_555
H4_8 O4_8 1_555 1_555
O5_8 Mn3_2 1_555 1_555
H5_8 O5_8 1_555 1_555
H6_8 O5_8 1_555 1_555
C1_8 O2_8 1_555 1_555
C3_8 C1_8 1_555 1_555
C4_8 C3_8 1_555 1_555
H7_8 C4_8 1_555 1_555
C8_8 C3_8 1_555 1_555
H9_8 C8_8 1_555 1_555
C9_8 C7_8 1_555 1_555
C10_8 C9_8 1_555 1_555
H10_8 C10_8 1_555 1_555
H11_8 C10_8 1_555 1_555
H12_8 C10_8 1_555 1_555
C12_8 C9_8 1_555 1_555
H16_8 C12_8 1_555 1_555
H17_8 C12_8 1_555 1_555
H18_8 C12_8 1_555 1_555
C7_8 C8_8 1_555 1_555

#END
