
###############################################################################
#
# This file contains modified crystal structure data generated from the
# MOF subset of the Cambridge Structural Database (CSD) v543 
# hosted by the Cambridge Crystallographic Data Centre (CCDC).
#
# This work is licensed under the Creative Commons
# Attribution-NonCommercial-ShareAlike 4.0 International License.
# To view a copy of this license, visit
# http://creativecommons.org/licenses/by-nc-sa/4.0/
# or send a letter to
# Creative Commons, PO Box 1866, Mountain View, CA 94042, USA.
#
# CIF created using the CSD Python API on 29 September 2022
# The structure has been converted into the P1 space group
# The structure has a 3D framework
# The original CSD entry ZUBDOS is in the triclinic crystal system
# The framework has been calculated to contain at least 10.0% void space
# The void calculation uses a probe of radius 1.32A, grid spacing 0.4
#
###############################################################################

data_ZUBDOS
_chemical_formula_moiety         '(C116 H100 Cd8 N8 O38)n'
_symmetry_cell_setting           triclinic
_symmetry_space_group_name_H-M   'P 1'
_symmetry_Int_Tables_number      1
_space_group_name_Hall           'P 1'
loop_
_symmetry_equiv_pos_site_id
_symmetry_equiv_pos_as_xyz
1 x,y,z
_cell_length_a                   14.995(13)
_cell_length_b                   15.889(14)
_cell_length_c                   17.378(16)
_cell_angle_alpha                100.306(10)
_cell_angle_beta                 111.719(10)
_cell_angle_gamma                107.935(9)
_cell_volume                     3452.84
loop_
_atom_site_label
_atom_site_type_symbol
_atom_site_fract_x
_atom_site_fract_y
_atom_site_fract_z
Cd2 Cd 0.71072(2) 0.44876(2) 0.24231(2)
C12 C 0.6270(5) 0.0697(4) 0.1242(4)
H7 H 0.690253 0.087212 0.120829
C13 C 0.5919(4) 0.1369(3) 0.1476(3)
C14 C 0.6580(4) 0.2399(4) 0.1701(3)
C15 C 0.4963(5) 0.1090(4) 0.1507(4)
H8 H 0.472594 0.153941 0.165966
C16 C 0.4349(5) 0.0142(4) 0.1312(4)
C35 C 0.2409(4) 0.0480(3) 0.6816(3)
H25 H 0.263397 0.066718 0.741854
C36 C 0.1847(4) 0.0907(3) 0.6301(4)
C37 C 0.1627(4) 0.1676(3) 0.6719(4)
C38 C 0.1503(5) 0.0599(4) 0.5404(4)
H26 H 0.112236 0.086874 0.505557
O5 O 0.7348(4) 0.2600(3) 0.1527(3)
O6 O 0.6307(4) 0.2970(3) 0.2039(3)
O11 O 0.1726(3) 0.1813(3) 0.7482(3)
O12 O 0.1323(3) 0.2190(2) 0.6279(2)
Cd5 Cd 0.12794(3) 0.30779(2) 0.75807(2)
Cd13 Cd 0.24464(3) 0.33378(2) 0.60513(2)
Cd14 Cd 0.87814(3) 0.38198(3) 0.18060(3)
O21 O 0.7814(3) 0.4755(2) 0.1411(2)
O22 O 0.5726(3) 0.4696(2) 0.1578(2)
O23 O 0.6820(3) 0.6156(2) 0.2434(2)
O31 O 0.8883(3) 0.6052(2) 0.3363(2)
O33 O 0.8801(2) 0.4617(2) 0.3158(2)
O36 O 0.7004(3) 0.4875(3) 0.3709(2)
Cd3 Cd 0.75536(3) 0.66622(2) 0.39487(2)
C2 C 0.3537(3) 0.5549(3) 0.0021(3)
C3 C 0.4270(4) 0.5247(3) 0.0508(3)
H1 H 0.418543 0.462975 0.031093
C4 C 0.5141(3) 0.5882(3) 0.1301(3)
C5 C 0.5948(3) 0.5556(3) 0.1813(3)
C6 C 0.5246(3) 0.6791(3) 0.1600(3)
H2 H 0.583091 0.721011 0.211856
C7 C 0.3644(3) 0.6465(3) 0.0338(3)
H3 H 0.314548 0.665823 0.001171
C8 C 0.4484(3) 0.7094(3) 0.1136(3)
C9 C 0.4054(4) 0.8430(3) 0.0859(3)
H4 H 0.339644 0.834292 0.088212
H5 H 0.388955 0.809882 0.026448
C10 C 0.4699(4) 0.9472(3) 0.1090(3)
C11 C 0.5659(5) 0.9756(4) 0.1057(4)
H6 H 0.589724 0.930673 0.090748
H9 H 0.370844 0.996535 0.133228
C17 C 0.4756(4) 0.8368(3) 0.2367(3)
H10 H 0.516484 0.904111 0.261187
H11 H 0.515182 0.808277 0.272632
C18 C 0.3715(4) 0.8148(4) 0.2421(3)
C19 C 0.3469(5) 0.8848(4) 0.2780(5)
H12 H 0.395517 0.946820 0.300183
C20 C 0.2525(5) 0.8649(4) 0.2818(5)
H13 H 0.238557 0.913651 0.305628
C21 C 0.1784(4) 0.7737(4) 0.2507(4)
C22 C 0.0728(4) 0.7518(5) 0.2515(4)
C23 C 0.2012(5) 0.7036(4) 0.2140(5)
H14 H 0.151444 0.641968 0.190620
C24 C 0.2969(5) 0.7229(4) 0.2110(5)
H15 H 0.311073 0.673884 0.188043
C25 C 0.6471(5) 0.7350(4) 0.4604(4)
C26 C 0.5814(4) 0.7655(4) 0.4975(4)
C27 C 0.6242(5) 0.8127(5) 0.5867(4)
H16 H 0.694655 0.828364 0.622892
C28 C 0.5633(5) 0.8366(5) 0.6222(4)
H17 H 0.593299 0.867994 0.682099
C29 C 0.4575(4) 0.8143(3) 0.5696(3)
C30 C 0.4149(4) 0.7699(4) 0.4796(4)
H18 H 0.345046 0.755902 0.442853
C31 C 0.4777(5) 0.7469(5) 0.4452(4)
H19 H 0.448952 0.717883 0.384966
C32 C 0.3936(4) 0.8416(4) 0.6126(3)
H20 H 0.400128 0.815836 0.660018
H21 H 0.424752 0.909368 0.638649
C33 C 0.2579(4) 0.8757(3) 0.5078(4)
H22 H 0.200336 0.839119 0.449541
H23 H 0.318959 0.908996 0.500787
C34 C 0.2627(4) 0.9778(3) 0.6424(3)
H24 H 0.300656 0.950494 0.676947
C39 C 0.1714(5) 0.9897(4) 0.5018(4)
H27 H 0.147268 0.969980 0.441300
C40 C 0.2284(4) 0.9480(3) 0.5520(3)
C41 C 0.2141(4) 0.7165(3) 0.5233(3)
C42 C 0.1080(4) 0.6820(3) 0.4582(3)
H28 H 0.081157 0.723947 0.438859
C43 C 0.0433(3) 0.5864(3) 0.4230(3)
C45 C 0.0807(4) 0.5222(3) 0.4539(3)
H29 H 0.038405 0.458243 0.429801
C46 C 0.1832(4) 0.5566(3) 0.5221(3)
C47 C 0.2180(4) 0.4859(4) 0.5563(3)
C48 C 0.2477(4) 0.6509(3) 0.5558(3)
H30 H 0.315134 0.671815 0.601184
N1 N 0.4631(3) 0.8036(3) 0.1467(3)
N2 N 0.2811(3) 0.8112(3) 0.5547(3)
O7 O 0.0490(4) 0.8124(4) 0.2803(4)
O8 O 0.0090(3) 0.6669(3) 0.2240(3)
O9 O 0.7386(4) 0.7481(4) 0.5108(3)
O10 O 0.6080(4) 0.6959(4) 0.3788(3)
O15 O 0.1636(3) 0.3999(2) 0.5130(2)
O16 O 0.2996(3) 0.5125(3) 0.6291(2)
O17 O 0.0248(4) 0.5043(3) 0.2218(4)
H31 H 0.072428 0.486349 0.218736
H32 H 0.050743 0.535173 0.276746
H36 H 0.043444 0.176829 0.037060
H37 H 0.131317 0.304337 0.031978
N3 N 0.0166(6) 0.3473(5) 0.0104(5)
C53 C 0.0391(15) 0.4395(12) 0.0102(11)
H41 H 0.100486 0.481627 0.063555
H43 H 0.030405 0.235471 0.445406
C56 C 0.0204(8) 0.1437(7) 0.3377(7)
H46 H 0.085936 0.142697 0.376179
N4 N 0.0369(7) 0.2055(7) 0.2877(6)
C58 C 0.1045(12) 0.2075(12) 0.2464(10)
H48 H 0.174102 0.254374 0.285641
H49 H 0.077550 0.222062 0.193452
H50 H 0.107087 0.147255 0.232413
Cd7 Cd 0.87206(3) 0.69221(2) 0.24193(2)
Cd11 Cd 0.28928(2) 0.55124(2) 0.75769(2)
O30 O 0.8677(3) 0.7810(2) 0.3721(2)
O34 O 0.8364(3) 0.6001(2) 0.4870(2)
C1 C 0.2639(3) 0.4890(3) 0.9135(3)
O1 O 0.2419(3) 0.4031(2) 0.8964(2)
O2 O 0.2186(3) 0.5245(2) 0.8589(2)
C52 C 0.0580(7) 0.2820(7) 0.9900(7)
H38 H 0.053378 0.274157 0.931802
H40 H 0.051729 0.445716 0.960869
Cd15 Cd 0.12186(3) 0.61802(3) 0.81940(3)
O24 O 0.3180(3) 0.3844(2) 0.7566(2)
O32 O 0.1117(3) 0.3948(2) 0.6637(2)
C44 C 0.9320(4) 0.5502(3) 0.3541(3)
O18 O 0.8706(5) 0.3291(5) 0.0479(4)
C49 C 0.9312(6) 0.3009(6) 0.0264(5)
C50 C 0.9198(6) 0.2069(5) 0.0160(6)
H33 H 0.928331 0.194063 0.070150
H39 H 0.980452 0.454311 0.006236
C54 C 0.9750(11) 0.1893(12) 0.3897(10)
H42 H 0.926041 0.142690 0.400616
C55 C 0.9189(8) 0.2354(8) 0.3302(7)
H44 H 0.845859 0.193420 0.291549
H45 H 0.922159 0.292841 0.364090
H47 H 0.970999 0.080246 0.299524
C57 C 0.9809(6) 0.2552(5) 0.2791(5)
O19 O 0.9809(4) 0.3098(4) 0.2362(4)
H34 H 0.850393 0.163882 0.969974
C51 C 0.9982(8) 0.1952(6) 0.9934(7)
H35 H 0.965506 0.146648 0.936884
O26 O 0.9510(4) 0.1876(4) 0.7197(4)
O27 O 0.9910(3) 0.3331(3) 0.7760(3)
H34_2 H 0.149607 0.836118 0.030026
C51_2 C 0.0018(8) 0.8048(6) 0.0066(7)
H35_2 H 0.034494 0.853352 0.063116
C44_2 C 0.0680(4) 0.4498(3) 0.6459(3)
O14 O 0.1199(2) 0.5383(2) 0.6842(2)
O18_2 O 0.1294(5) 0.6709(5) 0.9521(4)
C49_2 C 0.0688(6) 0.6991(6) 0.9736(5)
C50_2 C 0.0802(6) 0.7931(5) 0.9840(6)
H33_2 H 0.071669 0.805937 0.929850
H39_2 H 0.019548 0.545689 0.993764
C54_2 C 0.0250(11) 0.8107(12) 0.6103(10)
H42_2 H 0.073959 0.857310 0.599384
C55_2 C 0.0811(8) 0.7646(8) 0.6698(7)
H44_2 H 0.154141 0.806580 0.708451
H45_2 H 0.077841 0.707159 0.635910
H47_2 H 0.029001 0.919754 0.700476
C57_2 C 0.0191(6) 0.7448(5) 0.7209(5)
O19_2 O 0.0191(4) 0.6902(4) 0.7638(4)
O25 O 0.2652(4) 0.7400(3) 0.8473(3)
C1_2 C 0.7361(3) 0.5110(3) 0.0865(3)
O1_2 O 0.7581(3) 0.5969(2) 0.1036(2)
C52_2 C 0.9420(7) 0.7180(7) 0.0100(7)
H38_2 H 0.946622 0.725843 0.068198
H40_2 H 0.948271 0.554284 0.039131
O28 O 0.8274(3) 0.8187(3) 0.2518(3)
C2_2 C 0.6463(3) 0.4451(3) 0.9979(3)
C3_2 C 0.5730(4) 0.4753(3) 0.9492(3)
H1_2 H 0.581457 0.537025 0.968907
C4_2 C 0.4859(3) 0.4118(3) 0.8699(3)
C5_2 C 0.4052(3) 0.4444(3) 0.8187(3)
C6_2 C 0.4754(3) 0.3209(3) 0.8400(3)
H2_2 H 0.416909 0.278989 0.788144
C7_2 C 0.6356(3) 0.3535(3) 0.9662(3)
H3_2 H 0.685452 0.334177 0.998829
C8_2 C 0.5516(3) 0.2906(3) 0.8864(3)
C9_2 C 0.5946(4) 0.1570(3) 0.9141(3)
H4_2 H 0.660356 0.165708 0.911788
H5_2 H 0.611045 0.190118 0.973552
C10_2 C 0.5301(4) 0.0528(3) 0.8910(3)
C11_2 C 0.4341(5) 0.0244(4) 0.8943(4)
H6_2 H 0.410276 0.069327 0.909252
H9_2 H 0.629156 0.003465 0.866772
C17_2 C 0.5244(4) 0.1632(3) 0.7633(3)
H10_2 H 0.483516 0.095889 0.738813
H11_2 H 0.484818 0.191723 0.727368
C18_2 C 0.6285(4) 0.1852(4) 0.7579(3)
C19_2 C 0.6531(5) 0.1152(4) 0.7220(5)
H12_2 H 0.604483 0.053180 0.699817
C20_2 C 0.7475(5) 0.1351(4) 0.7182(5)
H13_2 H 0.761443 0.086349 0.694372
C21_2 C 0.8216(4) 0.2263(4) 0.7493(4)
C22_2 C 0.9272(4) 0.2482(5) 0.7485(4)
C23_2 C 0.7988(5) 0.2964(4) 0.7860(5)
H14_2 H 0.848556 0.358032 0.809380
C24_2 C 0.7031(5) 0.2771(4) 0.7890(5)
H15_2 H 0.688927 0.326116 0.811957
C25_2 C 0.3529(5) 0.2650(4) 0.5396(4)
C26_2 C 0.4186(4) 0.2345(4) 0.5025(4)
C27_2 C 0.3758(5) 0.1873(5) 0.4133(4)
H16_2 H 0.305345 0.171636 0.377108
C28_2 C 0.4367(5) 0.1634(5) 0.3778(4)
H17_2 H 0.406701 0.132006 0.317901
C29_2 C 0.5425(4) 0.1857(3) 0.4304(3)
C30_2 C 0.5851(4) 0.2301(4) 0.5204(4)
H18_2 H 0.654954 0.244098 0.557147
C31_2 C 0.5223(5) 0.2531(5) 0.5548(4)
H19_2 H 0.551048 0.282117 0.615034
C32_2 C 0.6064(4) 0.1584(4) 0.3874(3)
H20_2 H 0.599872 0.184164 0.339982
H21_2 H 0.575248 0.090632 0.361351
C33_2 C 0.7421(4) 0.1243(3) 0.4922(4)
H22_2 H 0.799664 0.160881 0.550459
H23_2 H 0.681041 0.091004 0.499213
C34_2 C 0.7373(4) 0.0222(3) 0.3576(3)
H24_2 H 0.699344 0.049506 0.323053
C39_2 C 0.8286(5) 0.0103(4) 0.4982(4)
H27_2 H 0.852732 0.030020 0.558700
C40_2 C 0.7716(4) 0.0520(3) 0.4480(3)
C41_2 C 0.7859(4) 0.2835(3) 0.4767(3)
C42_2 C 0.8920(4) 0.3180(3) 0.5418(3)
H28_2 H 0.918843 0.276053 0.561141
C43_2 C 0.9567(3) 0.4136(3) 0.5770(3)
C45_2 C 0.9193(4) 0.4778(3) 0.5461(3)
H29_2 H 0.961595 0.541757 0.570199
C46_2 C 0.8168(4) 0.4434(3) 0.4779(3)
C47_2 C 0.7820(4) 0.5141(4) 0.4437(3)
C48_2 C 0.7523(4) 0.3491(3) 0.4442(3)
H30_2 H 0.684866 0.328185 0.398816
N1_2 N 0.5369(3) 0.1964(3) 0.8533(3)
N2_2 N 0.7189(3) 0.1888(3) 0.4453(3)
O3 O 0.4274(3) 0.5304(2) 0.8422(2)
O9_2 O 0.2614(4) 0.2519(4) 0.4892(3)
O10_2 O 0.3920(4) 0.3041(4) 0.6212(3)
O17_2 O 0.9752(4) 0.4957(3) 0.7782(4)
H31_2 H 0.927572 0.513651 0.781264
H32_2 H 0.949257 0.464827 0.723254
H36_2 H 0.956556 0.823171 0.962940
H37_2 H 0.868683 0.695663 0.968022
N3_2 N 0.9834(6) 0.6527(5) 0.9896(5)
C53_2 C 0.9609(15) 0.5605(12) 0.9898(11)
H41_2 H 0.899514 0.518373 0.936445
H43_2 H 0.969595 0.764529 0.554594
C56_2 C 0.9796(8) 0.8563(7) 0.6623(7)
H46_2 H 0.914064 0.857303 0.623821
N4_2 N 0.9631(7) 0.7945(7) 0.7123(6)
C58_2 C 0.8955(12) 0.7925(12) 0.7536(10)
H48_2 H 0.825898 0.745626 0.714359
H49_2 H 0.922450 0.777938 0.806548
H50_2 H 0.892913 0.852745 0.767587
C12_2 C 0.3730(5) 0.9303(4) 0.8758(4)
H7_2 H 0.309747 0.912788 0.879171
C13_2 C 0.4081(4) 0.8631(3) 0.8524(3)
C14_2 C 0.3420(4) 0.7601(4) 0.8299(3)
C15_2 C 0.5037(5) 0.8910(4) 0.8493(4)
H8_2 H 0.527406 0.846059 0.834034
C16_2 C 0.5651(5) 0.9858(4) 0.8688(4)
C35_2 C 0.7591(4) 0.9520(3) 0.3184(3)
H25_2 H 0.736603 0.933282 0.258146
C36_2 C 0.8153(4) 0.9093(3) 0.3699(4)
C37_2 C 0.8373(4) 0.8324(3) 0.3281(4)
C38_2 C 0.8497(5) 0.9401(4) 0.4596(4)
H26_2 H 0.887764 0.913126 0.494443
O6_2 O 0.3693(4) 0.7030(3) 0.7961(3)
loop_
_geom_bond_atom_site_label_1
_geom_bond_atom_site_label_2
_geom_bond_site_symmetry_1
_geom_bond_site_symmetry_2
Cd2 O6 1_555 1_555
H7 C12 1_555 1_555
C13 C12 1_555 1_555
C14 C13 1_555 1_555
C15 C13 1_555 1_555
H8 C15 1_555 1_555
H25 C35 1_555 1_555
C36 C35 1_555 1_555
C37 C36 1_555 1_555
C38 C36 1_555 1_555
H26 C38 1_555 1_555
O5 C14 1_555 1_555
O6 C14 1_555 1_555
O11 C37 1_555 1_555
O12 C37 1_555 1_555
Cd5 O11 1_555 1_555
Cd13 O12 1_555 1_555
Cd14 O5 1_555 1_555
O21 Cd2 1_555 1_555
O22 Cd2 1_555 1_555
O23 Cd2 1_555 1_555
O31 Cd2 1_555 1_555
O33 Cd2 1_555 1_555
O36 Cd2 1_555 1_555
C15 C16 1_555 1_555
O12 Cd5 1_555 1_555
Cd14 O21 1_555 1_555
Cd14 O33 1_555 1_555
Cd3 O23 1_555 1_555
C2 C3 1_555 1_555
C3 H1 1_555 1_555
C4 C3 1_555 1_555
C5 C4 1_555 1_555
C6 C4 1_555 1_555
H2 C6 1_555 1_555
C7 C2 1_555 1_555
H3 C7 1_555 1_555
C8 C6 1_555 1_555
C9 H4 1_555 1_555
H5 C9 1_555 1_555
C10 C9 1_555 1_555
C11 C10 1_555 1_555
H6 C11 1_555 1_555
C17 H10 1_555 1_555
H11 C17 1_555 1_555
C18 C17 1_555 1_555
C19 C18 1_555 1_555
H12 C19 1_555 1_555
C20 C19 1_555 1_555
H13 C20 1_555 1_555
C21 C20 1_555 1_555
C22 C21 1_555 1_555
C23 C21 1_555 1_555
H14 C23 1_555 1_555
C24 C18 1_555 1_555
H15 C24 1_555 1_555
C25 C26 1_555 1_555
C26 C27 1_555 1_555
C27 H16 1_555 1_555
C28 C27 1_555 1_555
H17 C28 1_555 1_555
C29 C28 1_555 1_555
C30 C29 1_555 1_555
H18 C30 1_555 1_555
C31 C26 1_555 1_555
H19 C31 1_555 1_555
C32 C29 1_555 1_555
H20 C32 1_555 1_555
H21 C32 1_555 1_555
C33 H22 1_555 1_555
H23 C33 1_555 1_555
C34 H24 1_555 1_555
H27 C39 1_555 1_555
C40 C33 1_555 1_555
C41 C42 1_555 1_555
C42 H28 1_555 1_555
C43 C42 1_555 1_555
C45 C43 1_555 1_555
H29 C45 1_555 1_555
C46 C45 1_555 1_555
C47 C46 1_555 1_555
C48 C41 1_555 1_555
H30 C48 1_555 1_555
N1 C8 1_555 1_555
N2 C32 1_555 1_555
O22 C5 1_555 1_555
O23 C5 1_555 1_555
O7 C22 1_555 1_555
O8 C22 1_555 1_555
O9 Cd3 1_555 1_555
O10 Cd3 1_555 1_555
O15 C47 1_555 1_555
O16 C47 1_555 1_555
H31 O17 1_555 1_555
H32 O17 1_555 1_555
C53 N3 1_555 1_555
H41 C53 1_555 1_555
H46 C56 1_555 1_555
N4 C56 1_555 1_555
C58 N4 1_555 1_555
H48 C58 1_555 1_555
H49 C58 1_555 1_555
H50 C58 1_555 1_555
Cd7 O23 1_555 1_555
Cd11 O16 1_555 1_555
Cd13 O15 1_555 1_555
O30 Cd3 1_555 1_555
O34 Cd3 1_555 1_555
O36 Cd3 1_555 1_555
C7 C8 1_555 1_555
C9 N1 1_555 1_555
C17 N1 1_555 1_555
C23 C24 1_555 1_555
C25 O9 1_555 1_555
C25 O10 1_555 1_555
C30 C31 1_555 1_555
C33 N2 1_555 1_555
C34 C40 1_555 1_555
C39 C40 1_555 1_555
C41 N2 1_555 1_555
C46 C48 1_555 1_555
O16 Cd13 1_555 1_555
Cd7 O30 1_555 1_555
Cd5 O1 1_555 1_555
O1 C1 1_555 1_555
O2 C1 1_555 1_555
H38 C52 1_555 1_555
Cd11 O2 1_555 1_555
Cd15 O2 1_555 1_555
O24 Cd5 1_555 1_555
O32 Cd5 1_555 1_555
Cd11 O24 1_555 1_555
Cd11 O32 1_555 1_555
O31 C44 1_555 1_555
O33 C44 1_555 1_555
O18 Cd14 1_555 1_555
C49 O18 1_555 1_555
C50 C49 1_555 1_555
H33 C50 1_555 1_555
C54 H42 1_555 1_555
C55 C54 1_555 1_555
H44 C55 1_555 1_555
H45 C55 1_555 1_555
C57 C55 1_555 1_555
O19 Cd14 1_555 1_555
O31 Cd7 1_555 1_555
C57 O19 1_555 1_555
H35 C51 1_555 1_555
H35_2 C51_2 1_555 1_555
Cd15 O14 1_555 1_555
O32 C44_2 1_555 1_555
O14 C44_2 1_555 1_555
O18_2 Cd15 1_555 1_555
C49_2 O18_2 1_555 1_555
C50_2 C49_2 1_555 1_555
H33_2 C50_2 1_555 1_555
C54_2 H42_2 1_555 1_555
C55_2 C54_2 1_555 1_555
H44_2 C55_2 1_555 1_555
H45_2 C55_2 1_555 1_555
C57_2 C55_2 1_555 1_555
O19_2 Cd15 1_555 1_555
O25 Cd15 1_555 1_555
O14 Cd11 1_555 1_555
C57_2 O19_2 1_555 1_555
Cd7 O1_2 1_555 1_555
O1_2 C1_2 1_555 1_555
O21 C1_2 1_555 1_555
H38_2 C52_2 1_555 1_555
O28 Cd7 1_555 1_555
Cd13 O24 1_555 1_555
C2_2 C3_2 1_555 1_555
C3_2 H1_2 1_555 1_555
C4_2 C3_2 1_555 1_555
C5_2 C4_2 1_555 1_555
C6_2 C4_2 1_555 1_555
H2_2 C6_2 1_555 1_555
C7_2 C2_2 1_555 1_555
H3_2 C7_2 1_555 1_555
C8_2 C6_2 1_555 1_555
C9_2 H4_2 1_555 1_555
H5_2 C9_2 1_555 1_555
C10_2 C9_2 1_555 1_555
C11_2 C10_2 1_555 1_555
H6_2 C11_2 1_555 1_555
C17_2 H10_2 1_555 1_555
H11_2 C17_2 1_555 1_555
C18_2 C17_2 1_555 1_555
C19_2 C18_2 1_555 1_555
H12_2 C19_2 1_555 1_555
C20_2 C19_2 1_555 1_555
H13_2 C20_2 1_555 1_555
C21_2 C20_2 1_555 1_555
C22_2 C21_2 1_555 1_555
C23_2 C21_2 1_555 1_555
H14_2 C23_2 1_555 1_555
C24_2 C18_2 1_555 1_555
H15_2 C24_2 1_555 1_555
C25_2 C26_2 1_555 1_555
C26_2 C27_2 1_555 1_555
C27_2 H16_2 1_555 1_555
C28_2 C27_2 1_555 1_555
H17_2 C28_2 1_555 1_555
C29_2 C28_2 1_555 1_555
C30_2 C29_2 1_555 1_555
H18_2 C30_2 1_555 1_555
C31_2 C26_2 1_555 1_555
H19_2 C31_2 1_555 1_555
C32_2 C29_2 1_555 1_555
H20_2 C32_2 1_555 1_555
H21_2 C32_2 1_555 1_555
C33_2 H22_2 1_555 1_555
H23_2 C33_2 1_555 1_555
C34_2 H24_2 1_555 1_555
H27_2 C39_2 1_555 1_555
C40_2 C33_2 1_555 1_555
C41_2 C42_2 1_555 1_555
C42_2 H28_2 1_555 1_555
C43_2 C42_2 1_555 1_555
C45_2 C43_2 1_555 1_555
H29_2 C45_2 1_555 1_555
C46_2 C45_2 1_555 1_555
C47_2 C46_2 1_555 1_555
C48_2 C41_2 1_555 1_555
H30_2 C48_2 1_555 1_555
N1_2 C8_2 1_555 1_555
N2_2 C32_2 1_555 1_555
O3 C5_2 1_555 1_555
O24 C5_2 1_555 1_555
O26 C22_2 1_555 1_555
O27 C22_2 1_555 1_555
O9_2 Cd13 1_555 1_555
O10_2 Cd13 1_555 1_555
O34 C47_2 1_555 1_555
O36 C47_2 1_555 1_555
H31_2 O17_2 1_555 1_555
H32_2 O17_2 1_555 1_555
C53_2 N3_2 1_555 1_555
H41_2 C53_2 1_555 1_555
H46_2 C56_2 1_555 1_555
N4_2 C56_2 1_555 1_555
C58_2 N4_2 1_555 1_555
H48_2 C58_2 1_555 1_555
H49_2 C58_2 1_555 1_555
H50_2 C58_2 1_555 1_555
Cd11 O3 1_555 1_555
C7_2 C8_2 1_555 1_555
C9_2 N1_2 1_555 1_555
C17_2 N1_2 1_555 1_555
C23_2 C24_2 1_555 1_555
C25_2 O9_2 1_555 1_555
C25_2 O10_2 1_555 1_555
C30_2 C31_2 1_555 1_555
C33_2 N2_2 1_555 1_555
C34_2 C40_2 1_555 1_555
C39_2 C40_2 1_555 1_555
C41_2 N2_2 1_555 1_555
C46_2 C48_2 1_555 1_555
Cd11 O6_2 1_555 1_555
H7_2 C12_2 1_555 1_555
C13_2 C12_2 1_555 1_555
C14_2 C13_2 1_555 1_555
C15_2 C13_2 1_555 1_555
H8_2 C15_2 1_555 1_555
H25_2 C35_2 1_555 1_555
C36_2 C35_2 1_555 1_555
C37_2 C36_2 1_555 1_555
C38_2 C36_2 1_555 1_555
H26_2 C38_2 1_555 1_555
O25 C14_2 1_555 1_555
O6_2 C14_2 1_555 1_555
O28 C37_2 1_555 1_555
O30 C37_2 1_555 1_555
C15_2 C16_2 1_555 1_555

#END
