
###############################################################################
#
# This file contains modified crystal structure data generated from the
# MOF subset of the Cambridge Structural Database (CSD) v543 
# hosted by the Cambridge Crystallographic Data Centre (CCDC).
#
# This work is licensed under the Creative Commons
# Attribution-NonCommercial-ShareAlike 4.0 International License.
# To view a copy of this license, visit
# http://creativecommons.org/licenses/by-nc-sa/4.0/
# or send a letter to
# Creative Commons, PO Box 1866, Mountain View, CA 94042, USA.
#
# CIF created using the CSD Python API on 29 September 2022
# The structure has been converted into the P1 space group
# The structure has a 3D framework
# The original CSD entry ZUFGUF is in the monoclinic crystal system
# The framework has been calculated to contain at least 10.0% void space
# The void calculation uses a probe of radius 1.32A, grid spacing 0.4
#
###############################################################################

data_ZUFGUF
_chemical_formula_moiety         '(C48 H48 N40 O24 Zn8)n'
_symmetry_cell_setting           triclinic
_symmetry_space_group_name_H-M   'P 1'
_symmetry_Int_Tables_number      1
_space_group_name_Hall           'P 1'
loop_
_symmetry_equiv_pos_site_id
_symmetry_equiv_pos_as_xyz
1 x,y,z
_cell_length_a                   25.924(8)
_cell_length_b                   9.878(4)
_cell_length_c                   10.184(4)
_cell_angle_alpha                90
_cell_angle_beta                 91.328(16)
_cell_angle_gamma                90
_cell_volume                     2607.19
loop_
_atom_site_label
_atom_site_type_symbol
_atom_site_fract_x
_atom_site_fract_y
_atom_site_fract_z
Zn1 Zn 0.29782(2) 0.58027(7) 0.16375(6)
Zn2 Zn 0.20906(2) 0.41666(7) 0.39135(6)
O1 O 0.36723(15) 0.5267(5) 0.1068(4)
O2 O 0.4110(2) 0.6931(6) 0.2024(6)
O3 O 0.5082(2) 0.7213(7) 0.1642(7)
H1 H 0.482027 0.729997 0.206952
O4 O 0.13852(16) 0.4772(5) 0.4408(5)
O5 O 0.1019(2) 0.2918(7) 0.3594(7)
O6 O 0.0044(2) 0.2589(8) 0.3650(9)
H2 H 0.034004 0.230056 0.363756
N2 N 0.22090(17) 0.2378(5) 0.0207(5)
N3 N 0.17064(19) 0.1534(5) 0.1961(5)
H5 H 0.151137 0.188488 0.254788
H6 H 0.151210 0.119915 0.134090
N4 N 0.21851(17) 0.3575(5) 0.2065(4)
N5 N 0.25105(17) 0.4250(5) 0.1181(4)
N6 N 0.28485(18) 0.6453(5) 0.3442(5)
N7 N 0.25024(18) 0.5829(5) 0.4302(5)
N8 N 0.28448(18) 0.7652(5) 0.5306(4)
N9 N 0.2230(3) 0.6349(7) 0.6444(6)
H7 H 0.209560 0.555340 0.637154
H8 H 0.242468 0.637504 0.714132
N10 N 0.3392(2) 0.8387(5) 0.3586(5)
H9 H 0.359827 0.795465 0.308360
H10 H 0.322927 0.899464 0.313218
C1 C 0.4083(2) 0.5913(8) 0.1293(6)
C2 C 0.5031(3) 0.6135(8) 0.0837(7)
C3 C 0.4561(2) 0.5453(7) 0.0633(6)
C4 C 0.5464(2) 0.5662(8) 0.0190(7)
H11 H 0.577690 0.610777 0.031533
C5 C 0.0994(2) 0.4052(8) 0.4158(7)
C6 C 0.0481(2) 0.4542(7) 0.4561(7)
C7 C 0.0036(3) 0.3790(8) 0.4326(8)
C8 C 0.0440(3) 0.5747(8) 0.5239(8)
H12 H 0.073449 0.626107 0.540959
C9 C 0.3043(2) 0.7508(6) 0.4087(6)
C10 C 0.2514(2) 0.6594(7) 0.5369(6)
C11 C 0.2501(2) 0.3512(6) 0.0100(6)
C12 C 0.2016(2) 0.2493(6) 0.1438(6)
Zn7 Zn 0.29782(2) 0.91973(7) 0.66375(6)
N22 N 0.22090(17) 0.2622(5) 0.5207(5)
N24 N 0.28448(18) 0.7348(5) 0.0306(4)
N1 N 0.2758(2) 0.3862(6) 0.8993(5)
H3 H 0.286725 0.313993 0.861617
H4 H 0.255036 0.428625 0.846469
O7 O 0.63277(15) 0.4733(5) 0.8932(4)
O8 O 0.5890(2) 0.3069(6) 0.7976(6)
O9 O 0.4918(2) 0.2787(7) 0.8358(7)
H13 H 0.517973 0.270003 0.793048
C13 C 0.5917(2) 0.4087(8) 0.8707(6)
C14 C 0.4969(3) 0.3865(8) 0.9163(7)
C15 C 0.5439(2) 0.4547(7) 0.9367(6)
C16 C 0.4536(2) 0.4338(8) 0.9810(7)
H14 H 0.422310 0.389223 0.968467
Zn6 Zn 0.70218(2) 0.41973(7) 0.83625(6)
Zn9 Zn 0.20906(2) 0.08334(7) 0.89135(6)
N11 N 0.7242(2) 0.6138(6) 0.1007(5)
H17 H 0.713275 0.686007 0.138383
H18 H 0.744964 0.571375 0.153531
Zn8 Zn 0.79094(2) 0.91666(7) 0.10865(6)
O10 O 0.86148(16) 0.5228(5) 0.5592(5)
O11 O 0.8981(2) 0.7082(7) 0.6406(7)
O12 O 0.9956(2) 0.7411(8) 0.6350(9)
H15 H 0.965996 0.769944 0.636244
C17 C 0.9006(2) 0.5948(8) 0.5842(7)
C18 C 0.9519(2) 0.5458(7) 0.5439(7)
C19 C 0.9964(3) 0.6210(8) 0.5674(8)
C20 C 0.9560(3) 0.4253(8) 0.4761(8)
H16 H 0.926551 0.373893 0.459041
Zn4 Zn 0.79094(2) 0.58334(7) 0.60865(6)
N12 N 0.77910(17) 0.7622(5) 0.9793(5)
N13 N 0.82936(19) 0.8466(5) 0.8039(5)
H19 H 0.848863 0.811512 0.745212
H20 H 0.848790 0.880085 0.865910
N14 N 0.78149(17) 0.6425(5) 0.7935(4)
N15 N 0.74895(17) 0.5750(5) 0.8819(4)
N16 N 0.71515(18) 0.3547(5) 0.6558(5)
N17 N 0.74976(18) 0.4171(5) 0.5698(5)
N18 N 0.71552(18) 0.2348(5) 0.4694(4)
N19 N 0.7770(3) 0.3651(7) 0.3556(6)
H21 H 0.790440 0.444660 0.362846
H22 H 0.757532 0.362496 0.285868
N20 N 0.6608(2) 0.1613(5) 0.6414(5)
H23 H 0.640173 0.204535 0.691640
H24 H 0.677073 0.100536 0.686782
C21 C 0.6957(2) 0.2492(6) 0.5913(6)
C22 C 0.7486(2) 0.3406(7) 0.4631(6)
C23 C 0.7499(2) 0.6488(6) 0.9900(6)
C24 C 0.7984(2) 0.7507(6) 0.8562(6)
Zn5 Zn 0.70218(2) 0.08027(7) 0.33625(6)
N21 N 0.77910(17) 0.7378(5) 0.4793(5)
N23 N 0.71552(18) 0.2652(5) 0.9694(4)
O10_2 O 0.13852(16) 0.0228(5) 0.9408(5)
O11_2 O 0.1019(2) 0.2082(7) 0.8594(7)
O12_2 O 0.0044(2) 0.2411(8) 0.8650(9)
H15_2 H 0.034004 0.269944 0.863756
C17_2 C 0.0994(2) 0.0948(8) 0.9158(7)
C18_2 C 0.0481(2) 0.0458(7) 0.9561(7)
C19_2 C 0.0036(3) 0.1210(8) 0.9326(8)
N11_2 N 0.2758(2) 0.1138(6) 0.3993(5)
H17_2 H 0.286725 0.186007 0.361617
H18_2 H 0.255036 0.071375 0.346469
N13_2 N 0.17064(19) 0.3466(5) 0.6961(5)
H19_2 H 0.151137 0.311512 0.754788
H20_2 H 0.151210 0.380085 0.634090
N14_2 N 0.21851(17) 0.1425(5) 0.7065(4)
N15_2 N 0.25105(17) 0.0750(5) 0.6181(4)
C23_2 C 0.2501(2) 0.1488(6) 0.5100(6)
C24_2 C 0.2016(2) 0.2507(6) 0.6438(6)
C20_2 C 0.0440(3) 0.9253(8) 0.0239(8)
H16_2 H 0.073449 0.873893 0.040959
N19_2 N 0.2230(3) 0.8651(7) 0.1444(6)
H21_2 H 0.209560 0.944660 0.137154
H22_2 H 0.242468 0.862496 0.214132
C22_2 C 0.2514(2) 0.8406(7) 0.0369(6)
N16_2 N 0.28485(18) 0.8547(5) 0.8442(5)
N17_2 N 0.25024(18) 0.9171(5) 0.9302(5)
N20_2 N 0.3392(2) 0.6613(5) 0.8586(5)
H23_2 H 0.359827 0.704535 0.808360
H24_2 H 0.322927 0.600536 0.813218
C21_2 C 0.3043(2) 0.7492(6) 0.9087(6)
O13 O 0.36723(15) 0.9733(5) 0.6068(4)
O1_2 O 0.63277(15) 0.0267(5) 0.3932(4)
O2_2 O 0.5890(2) 0.1931(6) 0.2976(6)
O3_2 O 0.4918(2) 0.2213(7) 0.3358(7)
H1_2 H 0.517973 0.229997 0.293048
N6_2 N 0.71515(18) 0.1453(5) 0.1558(5)
N7_2 N 0.74976(18) 0.0829(5) 0.0698(5)
N10_2 N 0.6608(2) 0.3387(5) 0.1414(5)
H9_2 H 0.640173 0.295465 0.191640
H10_2 H 0.677073 0.399464 0.186782
C1_2 C 0.5917(2) 0.0913(8) 0.3707(6)
C2_2 C 0.4969(3) 0.1135(8) 0.4163(7)
C3_2 C 0.5439(2) 0.0453(7) 0.4367(6)
C4_2 C 0.4536(2) 0.0662(8) 0.4810(7)
H11_2 H 0.422310 0.110777 0.468467
C9_2 C 0.6957(2) 0.2508(6) 0.0913(6)
N9_2 N 0.7770(3) 0.1349(7) 0.8556(6)
H7_2 H 0.790440 0.055340 0.862846
H8_2 H 0.757532 0.137504 0.785868
C8_2 C 0.9560(3) 0.0747(8) 0.9761(8)
H12_2 H 0.926551 0.126107 0.959041
C10_2 C 0.7486(2) 0.1594(7) 0.9631(6)
O4_2 O 0.86148(16) 0.9772(5) 0.0592(5)
O5_2 O 0.8981(2) 0.7918(7) 0.1406(7)
O6_2 O 0.9956(2) 0.7589(8) 0.1350(9)
H2_2 H 0.965996 0.730056 0.136244
N1_2 N 0.7242(2) 0.8862(6) 0.6007(5)
H3_2 H 0.713275 0.813993 0.638383
H4_2 H 0.744964 0.928625 0.653531
N3_2 N 0.82936(19) 0.6534(5) 0.3039(5)
H5_2 H 0.848863 0.688488 0.245212
H6_2 H 0.848790 0.619915 0.365910
N4_2 N 0.78149(17) 0.8575(5) 0.2935(4)
N5_2 N 0.74895(17) 0.9250(5) 0.3819(4)
C5_2 C 0.9006(2) 0.9052(8) 0.0842(7)
C6_2 C 0.9519(2) 0.9542(7) 0.0439(7)
C7_2 C 0.9964(3) 0.8790(8) 0.0674(8)
C11_2 C 0.7499(2) 0.8512(6) 0.4900(6)
C12_2 C 0.7984(2) 0.7493(6) 0.3562(6)
O8_2 O 0.4110(2) 0.8069(6) 0.7024(6)
O9_2 O 0.5082(2) 0.7787(7) 0.6642(7)
H13_2 H 0.482027 0.770003 0.706952
C13_2 C 0.4083(2) 0.9087(8) 0.6293(6)
C14_2 C 0.5031(3) 0.8865(8) 0.5837(7)
C15_2 C 0.4561(2) 0.9547(7) 0.5633(6)
C16_2 C 0.5464(2) 0.9338(8) 0.5190(7)
H14_2 H 0.577690 0.889223 0.531533
loop_
_geom_bond_atom_site_label_1
_geom_bond_atom_site_label_2
_geom_bond_site_symmetry_1
_geom_bond_site_symmetry_2
Zn1 O1 1_555 1_555
Zn2 O4 1_555 1_555
O1 C1 1_555 1_555
O2 C1 1_555 1_555
O3 H1 1_555 1_555
O4 C5 1_555 1_555
O5 C5 1_555 1_555
O6 H2 1_555 1_555
N2 C11 1_555 1_555
N3 H5 1_555 1_555
H6 N3 1_555 1_555
N4 Zn2 1_555 1_555
N5 Zn1 1_555 1_555
N6 Zn1 1_555 1_555
N7 Zn2 1_555 1_555
N8 C9 1_555 1_555
N9 H7 1_555 1_555
H8 N9 1_555 1_555
N10 H9 1_555 1_555
H10 N10 1_555 1_555
C1 C3 1_555 1_555
C2 O3 1_555 1_555
C3 C2 1_555 1_555
C4 C2 1_555 1_555
H11 C4 1_555 1_555
C5 C6 1_555 1_555
C6 C7 1_555 1_555
C7 O6 1_555 1_555
C8 C6 1_555 1_555
H12 C8 1_555 1_555
C9 N6 1_555 1_555
C10 N7 1_555 1_555
C12 N2 1_555 1_555
Zn7 N8 1_555 1_555
N22 Zn2 1_555 1_555
N24 Zn1 1_555 1_555
N3 C12 1_555 1_555
N4 N5 1_555 1_555
N4 C12 1_555 1_555
N5 C11 1_555 1_555
N6 N7 1_555 1_555
N8 C10 1_555 1_555
N9 C10 1_555 1_555
N10 C9 1_555 1_555
N1 H3 1_555 1_555
H4 N1 1_555 1_555
O7 C13 1_555 1_555
O8 C13 1_555 1_555
O9 H13 1_555 1_555
C13 C15 1_555 1_555
C14 O9 1_555 1_555
H14 C16 1_555 1_555
Zn6 O7 1_555 1_555
C14 C15 1_555 1_555
C14 C16 1_555 1_555
N11 H17 1_555 1_555
H18 N11 1_555 1_555
O10 C17 1_555 1_555
O11 C17 1_555 1_555
O12 H15 1_555 1_555
C17 C18 1_555 1_555
C18 C19 1_555 1_555
H16 C20 1_555 1_555
Zn6 N15 1_555 1_555
Zn4 O10 1_555 1_555
N12 C23 1_555 1_555
N13 H19 1_555 1_555
H20 N13 1_555 1_555
N14 Zn4 1_555 1_555
N15 N14 1_555 1_555
N16 Zn6 1_555 1_555
N17 Zn4 1_555 1_555
N18 C21 1_555 1_555
N19 H21 1_555 1_555
H22 N19 1_555 1_555
N20 H23 1_555 1_555
H24 N20 1_555 1_555
C21 N16 1_555 1_555
C22 N17 1_555 1_555
C24 N12 1_555 1_555
Zn5 N18 1_555 1_555
N21 Zn4 1_555 1_555
N23 Zn6 1_555 1_555
O12 C19 1_555 1_555
C18 C20 1_555 1_555
N13 C24 1_555 1_555
N14 C24 1_555 1_555
N15 C23 1_555 1_555
N16 N17 1_555 1_555
N18 C22 1_555 1_555
N19 C22 1_555 1_555
N20 C21 1_555 1_555
O10_2 C17_2 1_555 1_555
O11_2 C17_2 1_555 1_555
O12_2 H15_2 1_555 1_555
C17_2 C18_2 1_555 1_555
C18_2 C19_2 1_555 1_555
Zn9 O10_2 1_555 1_555
N11_2 H17_2 1_555 1_555
H18_2 N11_2 1_555 1_555
N22 C23_2 1_555 1_555
N13_2 H19_2 1_555 1_555
H20_2 N13_2 1_555 1_555
N14_2 Zn9 1_555 1_555
N15_2 N14_2 1_555 1_555
C23_2 N11_2 1_555 1_555
C24_2 N22 1_555 1_555
O12_2 C19_2 1_555 1_555
N13_2 C24_2 1_555 1_555
N14_2 C24_2 1_555 1_555
N15_2 C23_2 1_555 1_555
H16_2 C20_2 1_555 1_555
N19_2 H21_2 1_555 1_555
H22_2 N19_2 1_555 1_555
N24 C22_2 1_555 1_555
N19_2 C22_2 1_555 1_555
N16_2 Zn7 1_555 1_555
N20_2 H23_2 1_555 1_555
H24_2 N20_2 1_555 1_555
C21_2 N16_2 1_555 1_555
O13 Zn7 1_555 1_555
N16_2 N17_2 1_555 1_555
N20_2 C21_2 1_555 1_555
Zn5 O1_2 1_555 1_555
O1_2 C1_2 1_555 1_555
O2_2 C1_2 1_555 1_555
O3_2 H1_2 1_555 1_555
N6_2 Zn5 1_555 1_555
N10_2 H9_2 1_555 1_555
H10_2 N10_2 1_555 1_555
C1_2 C3_2 1_555 1_555
C2_2 O3_2 1_555 1_555
C3_2 C2_2 1_555 1_555
C4_2 C2_2 1_555 1_555
H11_2 C4_2 1_555 1_555
C9_2 N6_2 1_555 1_555
N6_2 N7_2 1_555 1_555
N10_2 C9_2 1_555 1_555
N9_2 H7_2 1_555 1_555
H8_2 N9_2 1_555 1_555
H12_2 C8_2 1_555 1_555
N23 C10_2 1_555 1_555
N9_2 C10_2 1_555 1_555
Zn8 O4_2 1_555 1_555
O4_2 C5_2 1_555 1_555
O5_2 C5_2 1_555 1_555
O6_2 H2_2 1_555 1_555
N1_2 H3_2 1_555 1_555
H4_2 N1_2 1_555 1_555
N21 C11_2 1_555 1_555
N3_2 H5_2 1_555 1_555
H6_2 N3_2 1_555 1_555
N4_2 Zn8 1_555 1_555
C5_2 C6_2 1_555 1_555
C6_2 C7_2 1_555 1_555
C7_2 O6_2 1_555 1_555
C11_2 N1_2 1_555 1_555
C12_2 N21 1_555 1_555
O13 C13_2 1_555 1_555
O8_2 C13_2 1_555 1_555
O9_2 H13_2 1_555 1_555
C13_2 C15_2 1_555 1_555
C14_2 O9_2 1_555 1_555
H14_2 C16_2 1_555 1_555
N3_2 C12_2 1_555 1_555
N4_2 N5_2 1_555 1_555
N4_2 C12_2 1_555 1_555
N5_2 C11_2 1_555 1_555
C14_2 C15_2 1_555 1_555
C14_2 C16_2 1_555 1_555

#END
