
###############################################################################
#
# This file contains modified crystal structure data generated from the
# MOF subset of the Cambridge Structural Database (CSD) v543 
# hosted by the Cambridge Crystallographic Data Centre (CCDC).
#
# This work is licensed under the Creative Commons
# Attribution-NonCommercial-ShareAlike 4.0 International License.
# To view a copy of this license, visit
# http://creativecommons.org/licenses/by-nc-sa/4.0/
# or send a letter to
# Creative Commons, PO Box 1866, Mountain View, CA 94042, USA.
#
# CIF created using the CSD Python API on 29 September 2022
# The structure has been converted into the P1 space group
# The structure has a 3D framework
# The original CSD entry ZUGDEM is in the triclinic crystal system
# The framework has been calculated to contain at least 10.0% void space
# The void calculation uses a probe of radius 1.32A, grid spacing 0.4
#
###############################################################################

data_ZUGDEM
_chemical_formula_moiety         '(C92 H52 N20 O54 Zn12)n'
_symmetry_cell_setting           triclinic
_symmetry_space_group_name_H-M   'P 1'
_symmetry_Int_Tables_number      1
_space_group_name_Hall           'P 1'
loop_
_symmetry_equiv_pos_site_id
_symmetry_equiv_pos_as_xyz
1 x,y,z
_cell_length_a                   14.2079(5)
_cell_length_b                   17.2295(4)
_cell_length_c                   26.1584(11)
_cell_angle_alpha                88.764(3)
_cell_angle_beta                 74.470(3)
_cell_angle_gamma                70.377(3)
_cell_volume                     5794.84
loop_
_atom_site_label
_atom_site_type_symbol
_atom_site_fract_x
_atom_site_fract_y
_atom_site_fract_z
Zn6 Zn 0.57025(6) 0.31381(4) 0.07135(3)
C33 C 0.1653(6) 0.2317(4) 0.1224(3)
C34 C 0.1754(6) 0.1531(3) 0.0980(3)
H12 H 0.1177 0.1373 0.1014
C35 C 0.2783(5) 0.1003(4) 0.0682(3)
C36 C 0.3609(5) 0.1211(4) 0.0639(3)
H13 H 0.4260 0.0852 0.0450
C37 C 0.3525(6) 0.1970(4) 0.0875(3)
C38 C 0.2562(5) 0.2504(4) 0.1169(3)
H14 H 0.2519 0.2994 0.1332
C39 C 0.0651(6) 0.2828(4) 0.1534(3)
C40 C 0.2833(6) 0.0216(4) 0.0433(3)
C42 C 0.4492(5) 0.2177(4) 0.0803(3)
H17 H 0.0313 0.0208 0.1295
O19 O 0.0595(4) 0.3377(3) 0.1870(3)
O23 O 0.5336(4) 0.1637(3) 0.0684(2)
O24 O 0.4356(4) 0.2959(3) 0.0884(2)
Zn11 Zn 0.66620(6) 0.11612(4) 0.00883(3)
N11 N 0.6846(4) 0.2467(3) 0.1015(2)
O33 O 0.5310(4) 0.4328(3) 0.0760(2)
O34 O 0.6220(4) 0.3000(3) 0.99361(19)
O21 O 0.2131(4) 0.9914(3) 0.0574(2)
O22 O 0.3642(4) 0.9855(3) 0.0059(2)
Zn12 Zn 0.33380(6) 0.88388(4) 0.99117(3)
Zn5 Zn 0.85584(6) 0.27887(4) 0.19851(3)
C41 C 0.8272(5) 0.1591(4) 0.1168(3)
C43 C 0.7077(5) 0.2757(4) 0.1412(3)
H15 H 0.6660 0.3261 0.1600
C44 C 0.7613(5) 0.1710(4) 0.0860(3)
C45 C 0.8557(6) 0.0496(4) 0.0410(3)
H16 H 0.8680 0.0115 0.0132
C46 C 0.9101(6) 0.0854(4) 0.1076(3)
N1 N 0.9262(5) 0.0296(4) 0.0676(3)
N2 N 0.9796(5) 0.0666(3) 0.1368(3)
H18 H 0.9721 0.1004 0.1625
N3 N 0.7939(4) 0.2284(3) 0.15268(19)
N5 N 0.7696(4) 0.1154(3) 0.0474(2)
O20 O 0.9864(4) 0.2708(3) 0.1465(2)
O25 O 0.7482(4) 0.3936(3) 0.2162(2)
H21 H 0.7782 0.4276 0.2030
H22 H 0.7277 0.4037 0.2498
O28 O 0.8689(4) 0.2697(3) 0.2725(2)
O29 O 0.9387(8) 0.1507(4) 0.2324(3)
Zn1 Zn 0.11005(5) 0.79977(4) 0.42005(3)
Zn2 Zn 0.17306(6) 0.61911(4) 0.47782(3)
Zn3 Zn 0.46896(6) 0.21843(4) 0.70865(3)
C1 C 0.3264(5) 0.6710(3) 0.3953(2)
C2 C 0.3238(5) 0.7872(4) 0.3632(2)
H1 H 0.2990 0.8425 0.3563
C3 C 0.4255(6) 0.6612(4) 0.3633(3)
C4 C 0.5024(5) 0.5844(4) 0.3533(3)
C5 C 0.3841(6) 0.5360(4) 0.4090(3)
H2 H 0.3729 0.4910 0.4265
C6 C 0.0575(5) 0.8294(4) 0.5882(3)
C7 C 0.0842(5) 0.7940(4) 0.6323(3)
H3 H 0.1226 0.7380 0.6304
C8 C 0.0541(6) 0.8416(4) 0.6790(3)
C9 C 0.0056(6) 0.9271(4) 0.6798(3)
C11 C 0.0137(5) 0.9152(4) 0.5888(2)
H5 H 0.0019 0.9393 0.5579
C12 C 0.0869(5) 0.7798(4) 0.5372(3)
C13 C 0.0829(7) 0.8095(5) 0.7275(3)
C15 C 0.1899(5) 0.4207(4) 0.5731(2)
C16 C 0.2450(5) 0.3760(4) 0.6073(3)
H6 H 0.2987 0.3902 0.6136
C17 C 0.2202(5) 0.3100(4) 0.6319(3)
C18 C 0.1379(5) 0.2917(4) 0.6240(3)
H7 H 0.1192 0.2489 0.6408
C19 C 0.0834(5) 0.3377(4) 0.5907(3)
C20 C 0.1085(5) 0.4033(4) 0.5660(2)
H8 H 0.0693 0.4349 0.5447
C21 C 0.2141(5) 0.4928(3) 0.5452(3)
C22 C 0.2792(6) 0.2616(4) 0.6689(3)
C24 C 0.5274(5) 0.3165(4) 0.8297(2)
C25 C 0.5716(5) 0.2699(4) 0.8675(3)
H9 H 0.5962 0.2125 0.8629
C26 C 0.5786(5) 0.3078(4) 0.9106(3)
C27 C 0.5531(5) 0.3923(4) 0.9149(3)
H10 H 0.5580 0.4179 0.9446
C28 C 0.5195(5) 0.4405(4) 0.8741(3)
C29 C 0.5048(5) 0.4017(4) 0.8336(3)
H11 H 0.4790 0.4330 0.8078
C30 C 0.5113(5) 0.2756(4) 0.7859(3)
C31 C 0.6156(6) 0.2602(4) 0.9547(3)
C32 C 0.4896(6) 0.5338(5) 0.8799(4)
N6 N 0.3013(4) 0.6072(3) 0.4206(2)
N7 N 0.2621(4) 0.7486(3) 0.3951(2)
N8 N 0.4218(4) 0.7390(3) 0.3431(2)
N9 N 0.6002(4) 0.5652(3) 0.3227(3)
H19 H 0.6423 0.5150 0.3191
H20 H 0.6210 0.6030 0.3066
N10 N 0.4757(4) 0.5209(3) 0.3774(3)
O1 O 0.0595(3) 0.8139(2) 0.49839(18)
O2 O 0.1382(4) 0.7016(2) 0.53611(17)
O3 O 0.1311(4) 0.7303(3) 0.7275(2)
O4 O 0.0613(8) 0.8493(4) 0.7676(3)
O7 O 0.2731(4) 0.5236(3) 0.55940(19)
O8 O 0.1755(4) 0.5145(3) 0.50765(18)
O11 O 0.2498(6) 0.2083(4) 0.6938(3)
O12 O 0.3583(3) 0.2767(3) 0.67165(17)
O13 O 0.4902(4) 0.5715(3) 0.8362(3)
O14 O 0.4690(4) 0.5672(3) 0.9240(2)
O15 O 0.4346(4) 0.3177(3) 0.76710(18)
O16 O 0.5593(4) 0.2011(3) 0.77018(18)
O18 O 0.6346(5) 0.1849(3) 0.9503(2)
O26 O 0.5469(5) 0.0996(3) 0.6736(3)
H23 H 0.5313 0.0950 0.6449
H24 H 0.5309 0.0644 0.6942
O27 O 0.3622(5) 0.1758(4) 0.7626(2)
H25 H 0.3362 0.2032 0.7927
H26 H 0.3860 0.1243 0.7662
Zn10 Zn 0.53104(6) 0.78157(4) 0.29135(3)
Zn13 Zn 0.14416(6) 0.72113(4) 0.80149(3)
Zn15 Zn 0.42975(6) 0.68619(4) 0.92865(3)
N12 N 0.5782(4) 0.2610(3) 0.6569(2)
O30 O 0.0573(4) 0.9160(2) 0.41154(17)
O31 O 0.0557(3) 0.6387(3) 0.44853(19)
O32 O 0.0256(3) 0.7470(3) 0.39792(18)
O35 O 0.7869(4) 0.0086(3) 0.9426(2)
O36 O 0.6358(4) 0.0145(3) 0.9941(2)
C14 C 0.9375(5) 0.0557(4) 0.6347(3)
O5 O 0.8902(5) 0.1028(3) 0.6755(2)
O6 O 0.9427(4) 0.0840(2) 0.58846(17)
Zn8 Zn 0.88995(5) 0.20023(4) 0.57995(3)
H4 H 0.9849 0.9597 0.7115
C10 C 0.9882(5) 0.9638(4) 0.6342(3)
C23 C 0.9952(5) 0.3161(4) 0.5810(3)
O9 O 0.9443(3) 0.3613(3) 0.55147(19)
O10 O 0.9744(3) 0.2530(3) 0.60208(18)
Zn9 Zn 0.82694(6) 0.38089(4) 0.52218(3)
H4_2 H 0.0151 0.0403 0.2885
C10_2 C 0.0118(5) 0.0362(4) 0.3658(3)
C23_2 C 0.0048(5) 0.6839(4) 0.4190(3)
C14_2 C 0.0625(5) 0.9443(4) 0.3653(3)
O5_2 O 0.1098(5) 0.8972(3) 0.3245(2)
C1_2 C 0.6736(5) 0.3290(3) 0.6047(2)
C2_2 C 0.6762(5) 0.2128(4) 0.6368(2)
H1_2 H 0.7010 0.1575 0.6437
C3_2 C 0.5745(6) 0.3388(4) 0.6367(3)
C4_2 C 0.4976(5) 0.4156(4) 0.6467(3)
C5_2 C 0.6159(6) 0.4640(4) 0.5910(3)
H2_2 H 0.6271 0.5090 0.5735
C6_2 C 0.9425(5) 0.1706(4) 0.4118(3)
C7_2 C 0.9158(5) 0.2060(4) 0.3677(3)
H3_2 H 0.8774 0.2620 0.3696
C8_2 C 0.9459(6) 0.1584(4) 0.3210(3)
C9_2 C 0.9944(6) 0.0729(4) 0.3202(3)
C11_2 C 0.9863(5) 0.0848(4) 0.4112(2)
H5_2 H 0.9981 0.0607 0.4421
C12_2 C 0.9131(5) 0.2202(4) 0.4628(3)
C13_2 C 0.9171(7) 0.1905(5) 0.2725(3)
C15_2 C 0.8101(5) 0.5793(4) 0.4269(2)
C16_2 C 0.7550(5) 0.6240(4) 0.3927(3)
H6_2 H 0.7013 0.6098 0.3864
C17_2 C 0.7798(5) 0.6900(4) 0.3681(3)
C18_2 C 0.8621(5) 0.7083(4) 0.3760(3)
H7_2 H 0.8808 0.7511 0.3592
C19_2 C 0.9166(5) 0.6623(4) 0.4093(3)
C20_2 C 0.8915(5) 0.5967(4) 0.4340(2)
H8_2 H 0.9307 0.5651 0.4553
C21_2 C 0.7859(5) 0.5072(3) 0.4548(3)
C22_2 C 0.7208(6) 0.7384(4) 0.3311(3)
C24_2 C 0.4726(5) 0.6835(4) 0.1703(2)
C25_2 C 0.4284(5) 0.7301(4) 0.1325(3)
H9_2 H 0.4038 0.7875 0.1371
C26_2 C 0.4214(5) 0.6922(4) 0.0894(3)
C27_2 C 0.4469(5) 0.6077(4) 0.0851(3)
H10_2 H 0.4420 0.5821 0.0554
C28_2 C 0.4805(5) 0.5595(4) 0.1259(3)
C29_2 C 0.4952(5) 0.5983(4) 0.1664(3)
H11_2 H 0.5210 0.5670 0.1922
C30_2 C 0.4887(5) 0.7244(4) 0.2141(3)
C31_2 C 0.3844(6) 0.7398(4) 0.0453(3)
C32_2 C 0.5104(6) 0.4662(5) 0.1201(4)
N6_2 N 0.6987(4) 0.3928(3) 0.5794(2)
N7_2 N 0.7379(4) 0.2514(3) 0.6049(2)
N9_2 N 0.3998(4) 0.4348(3) 0.6773(3)
H19_2 H 0.3577 0.4850 0.6809
H20_2 H 0.3790 0.3970 0.6934
N10_2 N 0.5243(4) 0.4791(3) 0.6226(3)
O1_2 O 0.9405(3) 0.1861(2) 0.50161(18)
O2_2 O 0.8618(4) 0.2984(2) 0.46389(17)
O7_2 O 0.7269(4) 0.4764(3) 0.44060(19)
O8_2 O 0.8245(4) 0.4855(3) 0.49235(18)
O11_2 O 0.7502(6) 0.7917(4) 0.3062(3)
O12_2 O 0.6417(3) 0.7233(3) 0.32835(17)
O13_2 O 0.5098(4) 0.4285(3) 0.1638(3)
O15_2 O 0.5654(4) 0.6823(3) 0.23290(18)
O16_2 O 0.4407(4) 0.7989(3) 0.22982(18)
O17 O 0.3780(4) 0.7000(3) 0.00639(19)
O18_2 O 0.3654(5) 0.8151(3) 0.0497(2)
O26_2 O 0.4531(5) 0.9004(3) 0.3264(3)
H23_2 H 0.4687 0.9050 0.3551
H24_2 H 0.4691 0.9356 0.3058
O27_2 O 0.6378(5) 0.8242(4) 0.2374(2)
H25_2 H 0.6638 0.7968 0.2073
H26_2 H 0.6140 0.8757 0.2338
C41_2 C 0.1728(5) 0.8409(4) 0.8832(3)
C43_2 C 0.2923(5) 0.7243(4) 0.8588(3)
H15_2 H 0.3340 0.6739 0.8400
C44_2 C 0.2387(5) 0.8290(4) 0.9140(3)
C45_2 C 0.1443(6) 0.9504(4) 0.9590(3)
H16_2 H 0.1320 0.9885 0.9868
C46_2 C 0.0899(6) 0.9146(4) 0.8924(3)
N1_2 N 0.0738(5) 0.9704(4) 0.9324(3)
N2_2 N 0.0204(5) 0.9334(3) 0.8632(3)
H18_2 H 0.0279 0.8996 0.8375
N3_2 N 0.2061(4) 0.7716(3) 0.84732(19)
N4 N 0.3154(4) 0.7533(3) 0.8985(2)
N5_2 N 0.2304(4) 0.8846(3) 0.9526(2)
O20_2 O 0.0136(4) 0.7292(3) 0.8535(2)
O25_2 O 0.2518(4) 0.6064(3) 0.7838(2)
H21_2 H 0.2218 0.5724 0.7970
H22_2 H 0.2723 0.5963 0.7502
O37 O 0.4664(4) 0.8363(3) 0.9316(2)
C33_2 C 0.8347(6) 0.7683(4) 0.8776(3)
C34_2 C 0.8246(6) 0.8469(3) 0.9020(3)
H12_2 H 0.8823 0.8627 0.8986
C35_2 C 0.7217(5) 0.8997(4) 0.9318(3)
C36_2 C 0.6391(5) 0.8789(4) 0.9361(3)
H13_2 H 0.5740 0.9148 0.9550
C37_2 C 0.6475(6) 0.8030(4) 0.9125(3)
C38_2 C 0.7438(5) 0.7496(4) 0.8831(3)
H14_2 H 0.7481 0.7006 0.8668
C39_2 C 0.9349(6) 0.7172(4) 0.8466(3)
C40_2 C 0.7167(6) 0.9784(4) 0.9567(3)
C42_2 C 0.5508(5) 0.7823(4) 0.9197(3)
H17_2 H 0.9687 0.9792 0.8705
O19_2 O 0.9405(4) 0.6623(3) 0.8130(3)
O24_2 O 0.5644(4) 0.7041(3) 0.9116(2)
loop_
_geom_bond_atom_site_label_1
_geom_bond_atom_site_label_2
_geom_bond_site_symmetry_1
_geom_bond_site_symmetry_2
Zn6 O24 1_555 1_555
C33 C34 1_555 1_555
C34 H12 1_555 1_555
C35 C34 1_555 1_555
C36 C35 1_555 1_555
H13 C36 1_555 1_555
C37 C36 1_555 1_555
C38 C33 1_555 1_555
H14 C38 1_555 1_555
C39 C33 1_555 1_555
C40 C35 1_555 1_555
C42 C37 1_555 1_555
O19 C39 1_555 1_555
O23 C42 1_555 1_555
O24 C42 1_555 1_555
Zn11 O23 1_555 1_555
N11 Zn6 1_555 1_555
O33 Zn6 1_555 1_555
C37 C38 1_555 1_555
Zn11 N5 1_555 1_555
Zn5 N3 1_555 1_555
C41 C44 1_555 1_555
C43 H15 1_555 1_555
C44 N11 1_555 1_555
C45 H16 1_555 1_555
C46 C41 1_555 1_555
N1 C45 1_555 1_555
N2 C46 1_555 1_555
H18 N2 1_555 1_555
N3 C41 1_555 1_555
N11 C43 1_555 1_555
N5 C44 1_555 1_555
O20 Zn5 1_555 1_555
O25 Zn5 1_555 1_555
H21 O25 1_555 1_555
H22 O25 1_555 1_555
O28 Zn5 1_555 1_555
O29 Zn5 1_555 1_555
C43 N3 1_555 1_555
C45 N5 1_555 1_555
C46 N1 1_555 1_555
Zn1 N7 1_555 1_555
Zn2 N6 1_555 1_555
Zn3 O12 1_555 1_555
C1 C3 1_555 1_555
C2 H1 1_555 1_555
C3 C4 1_555 1_555
C4 N9 1_555 1_555
C5 H2 1_555 1_555
C6 C7 1_555 1_555
C7 H3 1_555 1_555
C8 C7 1_555 1_555
C9 C8 1_555 1_555
C11 C6 1_555 1_555
H5 C11 1_555 1_555
C12 C6 1_555 1_555
C13 C8 1_555 1_555
C15 C16 1_555 1_555
C16 H6 1_555 1_555
C17 C16 1_555 1_555
C18 C17 1_555 1_555
H7 C18 1_555 1_555
C19 C18 1_555 1_555
C20 C15 1_555 1_555
H8 C20 1_555 1_555
C21 C15 1_555 1_555
C22 C17 1_555 1_555
C24 C25 1_555 1_555
C25 H9 1_555 1_555
C26 C25 1_555 1_555
C27 C26 1_555 1_555
H10 C27 1_555 1_555
C28 C27 1_555 1_555
C29 C24 1_555 1_555
H11 C29 1_555 1_555
C30 C24 1_555 1_555
C31 C26 1_555 1_555
C32 C28 1_555 1_555
N6 C1 1_555 1_555
N7 C1 1_555 1_555
N8 C2 1_555 1_555
N9 H19 1_555 1_555
H20 N9 1_555 1_555
N10 C4 1_555 1_555
O1 Zn1 1_555 1_555
O2 Zn2 1_555 1_555
O3 C13 1_555 1_555
O4 C13 1_555 1_555
O7 C21 1_555 1_555
O8 Zn2 1_555 1_555
O11 C22 1_555 1_555
O12 C22 1_555 1_555
O13 C32 1_555 1_555
O14 C32 1_555 1_555
O15 Zn3 1_555 1_555
O16 Zn3 1_555 1_555
O34 C31 1_555 1_555
O26 Zn3 1_555 1_555
H23 O26 1_555 1_555
H24 O26 1_555 1_555
O27 Zn3 1_555 1_555
H25 O27 1_555 1_555
H26 O27 1_555 1_555
Zn10 N8 1_555 1_555
Zn13 O3 1_555 1_555
Zn15 O14 1_555 1_555
N12 Zn3 1_555 1_555
O30 Zn1 1_555 1_555
O31 Zn2 1_555 1_555
O32 Zn1 1_555 1_555
C2 N7 1_555 1_555
C3 N8 1_555 1_555
C5 N6 1_555 1_555
C5 N10 1_555 1_555
C12 O1 1_555 1_555
C12 O2 1_555 1_555
C19 C20 1_555 1_555
C21 O8 1_555 1_555
C28 C29 1_555 1_555
C30 O15 1_555 1_555
C30 O16 1_555 1_555
C31 O18 1_555 1_555
O4 Zn13 1_555 1_555
O5 C14 1_555 1_555
O6 C14 1_555 1_555
Zn8 O6 1_555 1_555
O9 C23 1_555 1_555
O10 C23 1_555 1_555
Zn8 O10 1_555 1_555
Zn9 O9 1_555 1_555
O31 C23_2 1_555 1_555
O32 C23_2 1_555 1_555
O5_2 C14_2 1_555 1_555
O30 C14_2 1_555 1_555
Zn8 N7_2 1_555 1_555
Zn9 N6_2 1_555 1_555
Zn10 O12_2 1_555 1_555
C1_2 C3_2 1_555 1_555
C2_2 H1_2 1_555 1_555
C3_2 C4_2 1_555 1_555
C4_2 N9_2 1_555 1_555
C5_2 H2_2 1_555 1_555
C6_2 C7_2 1_555 1_555
C7_2 H3_2 1_555 1_555
C8_2 C7_2 1_555 1_555
C9_2 C8_2 1_555 1_555
C11_2 C6_2 1_555 1_555
H5_2 C11_2 1_555 1_555
C12_2 C6_2 1_555 1_555
C13_2 C8_2 1_555 1_555
C15_2 C16_2 1_555 1_555
C16_2 H6_2 1_555 1_555
C17_2 C16_2 1_555 1_555
C18_2 C17_2 1_555 1_555
H7_2 C18_2 1_555 1_555
C19_2 C18_2 1_555 1_555
C20_2 C15_2 1_555 1_555
H8_2 C20_2 1_555 1_555
C21_2 C15_2 1_555 1_555
C22_2 C17_2 1_555 1_555
C24_2 C25_2 1_555 1_555
C25_2 H9_2 1_555 1_555
C26_2 C25_2 1_555 1_555
C27_2 C26_2 1_555 1_555
H10_2 C27_2 1_555 1_555
C28_2 C27_2 1_555 1_555
C29_2 C24_2 1_555 1_555
H11_2 C29_2 1_555 1_555
C30_2 C24_2 1_555 1_555
C31_2 C26_2 1_555 1_555
C32_2 C28_2 1_555 1_555
N6_2 C1_2 1_555 1_555
N7_2 C1_2 1_555 1_555
N12 C2_2 1_555 1_555
N9_2 H19_2 1_555 1_555
H20_2 N9_2 1_555 1_555
N10_2 C4_2 1_555 1_555
O1_2 Zn8 1_555 1_555
O2_2 Zn9 1_555 1_555
O28 C13_2 1_555 1_555
O29 C13_2 1_555 1_555
O7_2 C21_2 1_555 1_555
O8_2 Zn9 1_555 1_555
O11_2 C22_2 1_555 1_555
O12_2 C22_2 1_555 1_555
O13_2 C32_2 1_555 1_555
O33 C32_2 1_555 1_555
O15_2 Zn10 1_555 1_555
O16_2 Zn10 1_555 1_555
O17 C31_2 1_555 1_555
O26_2 Zn10 1_555 1_555
H23_2 O26_2 1_555 1_555
H24_2 O26_2 1_555 1_555
O27_2 Zn10 1_555 1_555
H25_2 O27_2 1_555 1_555
H26_2 O27_2 1_555 1_555
C2_2 N7_2 1_555 1_555
C3_2 N12 1_555 1_555
C5_2 N6_2 1_555 1_555
C5_2 N10_2 1_555 1_555
C12_2 O1_2 1_555 1_555
C12_2 O2_2 1_555 1_555
C19_2 C20_2 1_555 1_555
C21_2 O8_2 1_555 1_555
C28_2 C29_2 1_555 1_555
C30_2 O15_2 1_555 1_555
C30_2 O16_2 1_555 1_555
C31_2 O18_2 1_555 1_555
Zn12 N5_2 1_555 1_555
Zn13 N3_2 1_555 1_555
C41_2 C44_2 1_555 1_555
C43_2 H15_2 1_555 1_555
C44_2 N4 1_555 1_555
C45_2 H16_2 1_555 1_555
C46_2 C41_2 1_555 1_555
N1_2 C45_2 1_555 1_555
N2_2 C46_2 1_555 1_555
H18_2 N2_2 1_555 1_555
N3_2 C41_2 1_555 1_555
N4 C43_2 1_555 1_555
N5_2 C44_2 1_555 1_555
O20_2 Zn13 1_555 1_555
O25_2 Zn13 1_555 1_555
H21_2 O25_2 1_555 1_555
H22_2 O25_2 1_555 1_555
Zn15 N4 1_555 1_555
O37 Zn12 1_555 1_555
C43_2 N3_2 1_555 1_555
C45_2 N5_2 1_555 1_555
C46_2 N1_2 1_555 1_555
Zn15 O24_2 1_555 1_555
C33_2 C34_2 1_555 1_555
C34_2 H12_2 1_555 1_555
C35_2 C34_2 1_555 1_555
C36_2 C35_2 1_555 1_555
H13_2 C36_2 1_555 1_555
C37_2 C36_2 1_555 1_555
C38_2 C33_2 1_555 1_555
H14_2 C38_2 1_555 1_555
C39_2 C33_2 1_555 1_555
C40_2 C35_2 1_555 1_555
C42_2 C37_2 1_555 1_555
O19_2 C39_2 1_555 1_555
O37 C42_2 1_555 1_555
O24_2 C42_2 1_555 1_555
C37_2 C38_2 1_555 1_555

#END
