
###############################################################################
#
# This file contains modified crystal structure data generated from the
# MOF subset of the Cambridge Structural Database (CSD) v543 
# hosted by the Cambridge Crystallographic Data Centre (CCDC).
#
# This work is licensed under the Creative Commons
# Attribution-NonCommercial-ShareAlike 4.0 International License.
# To view a copy of this license, visit
# http://creativecommons.org/licenses/by-nc-sa/4.0/
# or send a letter to
# Creative Commons, PO Box 1866, Mountain View, CA 94042, USA.
#
# CIF created using the CSD Python API on 29 September 2022
# The structure has been converted into the P1 space group
# The structure has a 3D framework
# The original CSD entry ZUJGET is in the monoclinic crystal system
# The framework has been calculated to contain at least 10.0% void space
# The void calculation uses a probe of radius 1.32A, grid spacing 0.4
#
###############################################################################

data_ZUJGET
_chemical_formula_moiety         '(C144 H112 N13 Ni8 O40)n'
_symmetry_cell_setting           triclinic
_symmetry_space_group_name_H-M   'P 1'
_symmetry_Int_Tables_number      1
_space_group_name_Hall           'P 1'
loop_
_symmetry_equiv_pos_site_id
_symmetry_equiv_pos_as_xyz
1 x,y,z
_cell_length_a                   22.114(4)
_cell_length_b                   12.237(2)
_cell_length_c                   17.211(3)
_cell_angle_alpha                90
_cell_angle_beta                 103.161(3)
_cell_angle_gamma                90
_cell_volume                     4535.12
loop_
_atom_site_label
_atom_site_type_symbol
_atom_site_fract_x
_atom_site_fract_y
_atom_site_fract_z
O1 O 0.0000 0.4806(3) 0.2500
O4 O 0.04274(17) 0.2844(3) 0.1723(2)
C4 C 0.0329(3) 0.1164(4) 0.0653(3)
H4 H 0.0712 0.1495 0.0846
C6 C 0.0289(2) 0.0254(4) 0.0140(3)
H18 H 0.0037 0.5228 0.2919
H21 H 0.1200 0.0146 0.0076
Ni2 Ni 0.08125(3) 0.39055(5) 0.25821(4)
O11 O 0.16482(17) 0.2946(3) 0.2762(2)
H27 H 0.1582 0.2356 0.3036
H28 H 0.1673 0.2703 0.2303
O12 O 0.13060(15) 0.4893(3) 0.3447(2)
O14 O 0.06039(18) 0.2934(3) 0.3455(2)
N5 N 0.1144(2) 0.4848(4) 0.1745(3)
C1 C 0.7416(3) 0.7223(5) 0.0322(3)
Ni1 Ni 0.91875(3) 0.39055(5) 0.24179(4)
O1_2 O 1.0000 0.4806(3) 0.2500
H1 H 0.9963 0.5228 0.2081
O2 O 0.83518(17) 0.2946(3) 0.2238(2)
H2 H 0.8418 0.2356 0.1964
H3 H 0.8327 0.2703 0.2697
O3 O 0.86940(15) 0.4893(3) 0.1553(2)
O5 O 0.93961(18) 0.2934(3) 0.1545(2)
O6 O 0.94644(19) 0.5879(3) 0.1267(2)
N1 N 0.8856(2) 0.4848(4) 0.3255(3)
N2 N 0.7572(3) 0.7209(4) 0.4674(3)
C2 C 0.8353(3) 0.6086(5) 0.4319(3)
C3 C 0.9819(3) 0.1568(4) 0.0871(3)
C5 C 0.9884(3) 0.2533(4) 0.1422(3)
C7 C 0.7850(3) 0.6502(4) 0.0787(3)
H5 H 0.7738 0.6109 0.1195
C8 C 0.9236(3) 0.1080(5) 0.0582(4)
H6 H 0.8886 0.1368 0.0719
C9 C 0.8596(3) 0.6933(5) 0.0019(3)
C10 C 0.9199(3) 0.5150(5) 0.3959(3)
H8 H 0.9615 0.4942 0.4096
C11 C 0.8428(3) 0.6370(4) 0.0654(3)
C12 C 0.8897(3) 0.5665(5) 0.1196(3)
C14 C 0.8091(3) 0.6724(5) 0.4878(4)
H10 H 0.8313 0.6777 0.5405
C15 C 0.7996(3) 0.5752(5) 0.3598(4)
H11 H 0.7577 0.5933 0.3459
C16 C 0.8963(3) 0.5762(5) 0.4498(3)
H12 H 0.9219 0.5955 0.4985
C17 C 0.9186(3) 0.0185(5) 0.0100(4)
C18 C 0.8254(3) 0.5152(5) 0.3080(4)
H14 H 0.8004 0.4948 0.2591
H16 H 0.6008 0.8153 0.0072
C24 C 0.6821(3) 0.7400(5) 0.0461(3)
H17 H 0.6710 0.7053 0.0889
N4 N 0.7428(3) 0.7791(4) 0.5326(3)
C31 C 0.6647(3) 0.8914(5) 0.5681(3)
C32 C 0.5801(3) 0.9850(5) 0.6041(3)
C33 C 0.6909(3) 0.8276(5) 0.5122(4)
H23 H 0.6687 0.8223 0.4595
C34 C 0.7004(3) 0.9248(5) 0.6402(4)
H24 H 0.7423 0.9067 0.6541
C35 C 0.6037(3) 0.9238(5) 0.5502(3)
H25 H 0.5781 0.9045 0.5015
C36 C 0.6746(3) 0.9848(5) 0.6920(4)
O13 O 0.95726(17) 0.2844(3) 0.3277(2)
H7 H 0.8992 0.6847 0.9928
C13 C 0.8179(3) 0.7600(5) 0.9539(3)
H9 H 0.8290 0.7947 0.9111
C19 C 0.7584(3) 0.7777(5) 0.9678(3)
O8 O 0.55356(19) 0.9121(3) 0.8733(2)
C20 C 0.7150(3) 0.8498(4) 0.9213(3)
H15 H 0.7262 0.8891 0.8805
C21 C 0.6404(3) 0.8067(5) 0.9981(3)
C22 C 0.6572(3) 0.8630(4) 0.9346(3)
C23 C 0.6103(3) 0.9335(5) 0.8804(3)
C1_2 C 0.2584(3) 0.7223(5) 0.4678(3)
O6_2 O 0.05356(19) 0.5879(3) 0.3733(2)
N2_2 N 0.2428(3) 0.7209(4) 0.0326(3)
C2_2 C 0.1647(3) 0.6086(5) 0.0681(3)
C3_2 C 0.0181(3) 0.1568(4) 0.4129(3)
C5_2 C 0.0116(3) 0.2533(4) 0.3578(3)
C7_2 C 0.2150(3) 0.6502(4) 0.4213(3)
H5_2 H 0.2262 0.6109 0.3805
C8_2 C 0.0764(3) 0.1080(5) 0.4418(4)
H6_2 H 0.1114 0.1368 0.4281
C9_2 C 0.1404(3) 0.6933(5) 0.4981(3)
H7_2 H 0.1008 0.6847 0.5072
C10_2 C 0.0801(3) 0.5150(5) 0.1041(3)
H8_2 H 0.0385 0.4942 0.0904
C11_2 C 0.1572(3) 0.6370(4) 0.4346(3)
C12_2 C 0.1103(3) 0.5665(5) 0.3804(3)
C13_2 C 0.1821(3) 0.7600(5) 0.5461(3)
H9_2 H 0.1710 0.7947 0.5889
C14_2 C 0.1909(3) 0.6724(5) 0.0122(4)
C15_2 C 0.2004(3) 0.5752(5) 0.1402(4)
H11_2 H 0.2423 0.5933 0.1541
C16_2 C 0.1037(3) 0.5762(5) 0.0502(3)
H12_2 H 0.0781 0.5955 0.0015
C17_2 C 0.0814(3) 0.0185(5) 0.4900(4)
C18_2 C 0.1746(3) 0.5152(5) 0.1920(4)
H14_2 H 0.1996 0.4948 0.2409
C19_2 C 0.2416(3) 0.7777(5) 0.5322(3)
O8_2 O 0.44644(19) 0.9121(3) 0.6267(2)
C20_2 C 0.2850(3) 0.8498(4) 0.5787(3)
H15_2 H 0.2738 0.8891 0.6195
C21_2 C 0.3596(3) 0.8067(5) 0.5019(3)
H16_2 H 0.3992 0.8153 0.4928
C22_2 C 0.3428(3) 0.8630(4) 0.5654(3)
C23_2 C 0.3897(3) 0.9335(5) 0.6196(3)
C24_2 C 0.3179(3) 0.7400(5) 0.4539(3)
H17_2 H 0.3290 0.7053 0.4111
H23_2 H 0.3313 0.8223 0.0405
H10_2 H 0.1687 0.6777 0.9595
N4_2 N 0.2572(3) 0.7791(4) 0.9674(3)
C31_2 C 0.3353(3) 0.8914(5) 0.9319(3)
C32_2 C 0.4199(3) 0.9850(5) 0.8959(3)
C33_2 C 0.3091(3) 0.8276(5) 0.9878(4)
C34_2 C 0.2996(3) 0.9248(5) 0.8598(4)
H24_2 H 0.2577 0.9067 0.8459
C35_2 C 0.3963(3) 0.9238(5) 0.9498(3)
H25_2 H 0.4219 0.9045 0.9985
C36_2 C 0.3254(3) 0.9848(5) 0.8080(4)
C4_2 C 0.9671(3) 0.1164(4) 0.4347(3)
H4_2 H 0.9288 0.1495 0.4154
C6_2 C 0.9711(2) 0.0254(4) 0.4860(3)
H21_2 H 0.8800 0.0146 0.4924
H1_2 H 0.5037 0.9772 0.7919
H18_2 H 0.4963 0.9772 0.7081
O10 O 0.06039(18) 0.7066(3) 0.8455(2)
C25 C 0.0181(3) 0.8432(4) 0.9129(3)
C27 C 0.0116(3) 0.7467(4) 0.8578(3)
C29 C 0.0764(3) 0.8920(5) 0.9418(4)
H20 H 0.1114 0.8632 0.9281
C30 C 0.0814(3) 0.9815(5) 0.9900(4)
Ni3 Ni 0.08125(3) 0.60945(5) 0.75821(4)
H13 H 0.8800 0.9854 0.9924
O9 O 0.95726(17) 0.7156(3) 0.8277(2)
C26 C 0.9671(3) 0.8836(4) 0.9347(3)
H19 H 0.9288 0.8505 0.9154
C28 C 0.9711(2) 0.9746(4) 0.9860(3)
Ni4 Ni 0.91875(3) 0.60945(5) 0.74179(4)
H13_2 H 0.1200 0.9854 0.5076
O9_2 O 0.04274(17) 0.7156(3) 0.6723(2)
C26_2 C 0.0329(3) 0.8836(4) 0.5653(3)
H19_2 H 0.0712 0.8505 0.5846
C28_2 C 0.0289(2) 0.9746(4) 0.5140(3)
O10_2 O 0.93961(18) 0.7066(3) 0.6545(2)
C25_2 C 0.9819(3) 0.8432(4) 0.5871(3)
C27_2 C 0.9884(3) 0.7467(4) 0.6422(3)
C29_2 C 0.9236(3) 0.8920(5) 0.5582(4)
H20_2 H 0.8886 0.8632 0.5719
C30_2 C 0.9186(3) 0.9815(5) 0.5100(4)
C1_3 C 0.2416(3) 0.2223(5) 0.0322(3)
H1_3 H 0.4963 0.0228 0.2081
O6_3 O 0.44644(19) 0.0879(3) 0.1267(2)
N2_3 N 0.2572(3) 0.2209(4) 0.4674(3)
C2_3 C 0.3353(3) 0.1086(5) 0.4319(3)
C7_3 C 0.2850(3) 0.1502(4) 0.0787(3)
H5_3 H 0.2738 0.1109 0.1195
C9_3 C 0.3596(3) 0.1933(5) 0.0019(3)
C10_3 C 0.4199(3) 0.0150(5) 0.3959(3)
C11_3 C 0.3428(3) 0.1370(4) 0.0654(3)
C12_3 C 0.3897(3) 0.0665(5) 0.1196(3)
C14_3 C 0.3091(3) 0.1724(5) 0.4878(4)
H10_3 H 0.3313 0.1777 0.5405
C15_3 C 0.2996(3) 0.0752(5) 0.3598(4)
H11_3 H 0.2577 0.0933 0.3459
C16_3 C 0.3963(3) 0.0762(5) 0.4498(3)
H12_3 H 0.4219 0.0955 0.4985
C18_3 C 0.3254(3) 0.0152(5) 0.3080(4)
H16_3 H 0.1008 0.3153 0.0072
C24_3 C 0.1821(3) 0.2400(5) 0.0461(3)
H17_3 H 0.1710 0.2053 0.0889
H18_3 H 0.5037 0.0228 0.2919
N3 N 0.1144(2) 0.5152(4) 0.6745(3)
N4_3 N 0.2428(3) 0.2791(4) 0.5326(3)
C31_3 C 0.1647(3) 0.3914(5) 0.5681(3)
C32_3 C 0.0801(3) 0.4850(5) 0.6041(3)
H22 H 0.0385 0.5058 0.5904
C33_3 C 0.1909(3) 0.3276(5) 0.5122(4)
H23_3 H 0.1687 0.3223 0.4595
C34_3 C 0.2004(3) 0.4248(5) 0.6402(4)
H24_3 H 0.2423 0.4067 0.6541
C35_3 C 0.1037(3) 0.4238(5) 0.5502(3)
H25_3 H 0.0781 0.4045 0.5015
C36_3 C 0.1746(3) 0.4848(5) 0.6920(4)
H26 H 0.1996 0.5052 0.7409
H7_3 H 0.3992 0.1847 0.9928
C13_3 C 0.3179(3) 0.2600(5) 0.9539(3)
H9_3 H 0.3290 0.2947 0.9111
C19_3 C 0.2584(3) 0.2777(5) 0.9678(3)
O7 O 0.13060(15) 0.5107(3) 0.8447(2)
O8_3 O 0.05356(19) 0.4121(3) 0.8733(2)
C20_3 C 0.2150(3) 0.3498(4) 0.9213(3)
H15_3 H 0.2262 0.3891 0.8805
C21_3 C 0.1404(3) 0.3067(5) 0.9981(3)
C22_3 C 0.1572(3) 0.3630(4) 0.9346(3)
C23_3 C 0.1103(3) 0.4335(5) 0.8804(3)
C1_4 C 0.7584(3) 0.2223(5) 0.4678(3)
O6_4 O 0.55356(19) 0.0879(3) 0.3733(2)
N2_4 N 0.7428(3) 0.2209(4) 0.0326(3)
C2_4 C 0.6647(3) 0.1086(5) 0.0681(3)
C7_4 C 0.7150(3) 0.1502(4) 0.4213(3)
H5_4 H 0.7262 0.1109 0.3805
C9_4 C 0.6404(3) 0.1933(5) 0.4981(3)
H7_4 H 0.6008 0.1847 0.5072
C10_4 C 0.5801(3) 0.0150(5) 0.1041(3)
C11_4 C 0.6572(3) 0.1370(4) 0.4346(3)
C12_4 C 0.6103(3) 0.0665(5) 0.3804(3)
C13_4 C 0.6821(3) 0.2600(5) 0.5461(3)
H9_4 H 0.6710 0.2947 0.5889
C14_4 C 0.6909(3) 0.1724(5) 0.0122(4)
C15_4 C 0.7004(3) 0.0752(5) 0.1402(4)
H11_4 H 0.7423 0.0933 0.1541
C16_4 C 0.6037(3) 0.0762(5) 0.0502(3)
H12_4 H 0.5781 0.0955 0.0015
C18_4 C 0.6746(3) 0.0152(5) 0.1920(4)
C19_4 C 0.7416(3) 0.2777(5) 0.5322(3)
O7_2 O 0.86940(15) 0.5107(3) 0.6553(2)
O8_4 O 0.94644(19) 0.4121(3) 0.6267(2)
C20_4 C 0.7850(3) 0.3498(4) 0.5787(3)
H15_4 H 0.7738 0.3891 0.6195
C21_4 C 0.8596(3) 0.3067(5) 0.5019(3)
H16_4 H 0.8992 0.3153 0.4928
C22_4 C 0.8428(3) 0.3630(4) 0.5654(3)
C23_4 C 0.8897(3) 0.4335(5) 0.6196(3)
C24_4 C 0.8179(3) 0.2400(5) 0.4539(3)
H17_4 H 0.8290 0.2053 0.4111
H23_4 H 0.8313 0.3223 0.0405
H10_4 H 0.6687 0.1777 0.9595
N3_2 N 0.8856(2) 0.5152(4) 0.8255(3)
N4_4 N 0.7572(3) 0.2791(4) 0.9674(3)
C31_4 C 0.8353(3) 0.3914(5) 0.9319(3)
C32_4 C 0.9199(3) 0.4850(5) 0.8959(3)
H22_2 H 0.9615 0.5058 0.9096
C33_4 C 0.8091(3) 0.3276(5) 0.9878(4)
C34_4 C 0.7996(3) 0.4248(5) 0.8598(4)
H24_4 H 0.7577 0.4067 0.8459
C35_4 C 0.8963(3) 0.4238(5) 0.9498(3)
H25_4 H 0.9219 0.4045 0.9985
C36_4 C 0.8254(3) 0.4848(5) 0.8080(4)
H26_2 H 0.8004 0.5052 0.7591
O1_3 O -0.0000 0.5194(3) 0.7500
H1_4 H 0.0037 0.4772 0.7919
O2_2 O 0.16482(17) 0.7054(3) 0.7762(2)
H2_2 H 0.1582 0.7644 0.8036
H3_2 H 0.1673 0.7297 0.7303
O1_4 O 1.0000 0.5194(3) 0.7500
H18_4 H 0.9963 0.4772 0.7081
O11_2 O 0.83518(17) 0.7054(3) 0.7238(2)
H27_2 H 0.8418 0.7644 0.6964
H28_2 H 0.8327 0.7297 0.7697
N3_3 N 0.6144(2) 0.0152(4) 0.6745(3)
H22_3 H 0.5385 0.0058 0.5904
H26_3 H 0.6996 0.0052 0.7409
Ni6 Ni 0.58125(3) 0.10945(5) 0.75821(4)
O7_3 O 0.63060(15) 0.0107(3) 0.8447(2)
O7_4 O 0.36940(15) 0.0107(3) 0.6553(2)
Ni5 Ni 0.41875(3) 0.10945(5) 0.74179(4)
N3_4 N 0.3856(2) 0.0152(4) 0.8255(3)
H22_4 H 0.4615 0.0058 0.9096
H26_4 H 0.3004 0.0052 0.7591
Ni1_2 Ni 0.41875(3) 0.89055(5) 0.24179(4)
O1_5 O 0.5000 0.9806(3) 0.2500
O2_3 O 0.33518(17) 0.7946(3) 0.2238(2)
H2_3 H 0.3418 0.7356 0.1964
H3_3 H 0.3327 0.7703 0.2697
O3_2 O 0.36940(15) 0.9893(3) 0.1553(2)
O4_2 O 0.54274(17) 0.7844(3) 0.1723(2)
O5_2 O 0.43961(18) 0.7934(3) 0.1545(2)
N1_2 N 0.3856(2) 0.9848(4) 0.3255(3)
C3_3 C 0.4819(3) 0.6568(4) 0.0871(3)
C4_3 C 0.5329(3) 0.6164(4) 0.0653(3)
H4_3 H 0.5712 0.6495 0.0846
C5_3 C 0.4884(3) 0.7533(4) 0.1422(3)
C6_3 C 0.5289(2) 0.5254(4) 0.0140(3)
C8_3 C 0.4236(3) 0.6080(5) 0.0582(4)
H6_3 H 0.3886 0.6368 0.0719
H8_3 H 0.4615 0.9942 0.4096
C17_3 C 0.4186(3) 0.5185(5) 0.0100(4)
H14_3 H 0.3004 0.9948 0.2591
H21_3 H 0.6200 0.5146 0.0076
Ni2_2 Ni 0.58125(3) 0.89055(5) 0.25821(4)
O11_3 O 0.66482(17) 0.7946(3) 0.2762(2)
H27_3 H 0.6582 0.7356 0.3036
H28_3 H 0.6673 0.7703 0.2303
O12_2 O 0.63060(15) 0.9893(3) 0.3447(2)
O13_2 O 0.45726(17) 0.7844(3) 0.3277(2)
O14_2 O 0.56039(18) 0.7934(3) 0.3455(2)
N5_2 N 0.6144(2) 0.9848(4) 0.1745(3)
H13_3 H 0.3800 0.4854 0.9924
O9_3 O 0.45726(17) 0.2156(3) 0.8277(2)
O10_3 O 0.56039(18) 0.2066(3) 0.8455(2)
C25_3 C 0.5181(3) 0.3432(4) 0.9129(3)
C26_3 C 0.4671(3) 0.3836(4) 0.9347(3)
H19_3 H 0.4288 0.3505 0.9154
C27_3 C 0.5116(3) 0.2467(4) 0.8578(3)
C28_3 C 0.4711(2) 0.4746(4) 0.9860(3)
C29_3 C 0.5764(3) 0.3920(5) 0.9418(4)
H20_3 H 0.6114 0.3632 0.9281
C30_3 C 0.5814(3) 0.4815(5) 0.9900(4)
C3_4 C 0.5181(3) 0.6568(4) 0.4129(3)
C4_4 C 0.4671(3) 0.6164(4) 0.4347(3)
H4_4 H 0.4288 0.6495 0.4154
C5_4 C 0.5116(3) 0.7533(4) 0.3578(3)
C6_4 C 0.4711(2) 0.5254(4) 0.4860(3)
C8_4 C 0.5764(3) 0.6080(5) 0.4418(4)
H6_4 H 0.6114 0.6368 0.4281
H8_4 H 0.5385 0.9942 0.0904
C17_4 C 0.5814(3) 0.5185(5) 0.4900(4)
H13_4 H 0.6200 0.4854 0.5076
H14_4 H 0.6996 0.9948 0.2409
O9_4 O 0.54274(17) 0.2156(3) 0.6723(2)
O10_4 O 0.43961(18) 0.2066(3) 0.6545(2)
C25_4 C 0.4819(3) 0.3432(4) 0.5871(3)
C26_4 C 0.5329(3) 0.3836(4) 0.5653(3)
H19_4 H 0.5712 0.3505 0.5846
C27_4 C 0.4884(3) 0.2467(4) 0.6422(3)
C28_4 C 0.5289(2) 0.4746(4) 0.5140(3)
C29_4 C 0.4236(3) 0.3920(5) 0.5582(4)
H20_4 H 0.3886 0.3632 0.5719
C30_4 C 0.4186(3) 0.4815(5) 0.5100(4)
H21_4 H 0.3800 0.5146 0.4924
O1_6 O 0.5000 0.0194(3) 0.7500
O2_4 O 0.66482(17) 0.2054(3) 0.7762(2)
H2_4 H 0.6582 0.2644 0.8036
H3_4 H 0.6673 0.2297 0.7303
O11_4 O 0.33518(17) 0.2054(3) 0.7238(2)
H27_4 H 0.3418 0.2644 0.6964
H28_4 H 0.3327 0.2297 0.7697
loop_
_geom_bond_atom_site_label_1
_geom_bond_atom_site_label_2
_geom_bond_site_symmetry_1
_geom_bond_site_symmetry_2
C4 H4 1_555 1_555
C6 C4 1_555 1_555
H18 O1 1_555 1_555
Ni2 O1 1_555 1_555
O11 Ni2 1_555 1_555
H27 O11 1_555 1_555
H28 O11 1_555 1_555
O12 Ni2 1_555 1_555
O14 Ni2 1_555 1_555
N5 Ni2 1_555 1_555
O4 Ni2 1_555 1_555
C1 C7 1_555 1_555
Ni1 O1_2 1_555 1_555
O1_2 H1 1_555 1_555
O2 Ni1 1_555 1_555
H2 O2 1_555 1_555
H3 O2 1_555 1_555
O3 Ni1 1_555 1_555
O5 Ni1 1_555 1_555
O6 C12 1_555 1_555
N1 Ni1 1_555 1_555
N2 C14 1_555 1_555
C2 C14 1_555 1_555
C5 O5 1_555 1_555
C7 H5 1_555 1_555
C8 C3 1_555 1_555
H6 C8 1_555 1_555
C10 N1 1_555 1_555
H8 C10 1_555 1_555
C11 C7 1_555 1_555
C12 O3 1_555 1_555
C14 H10 1_555 1_555
C15 C2 1_555 1_555
H11 C15 1_555 1_555
C16 C2 1_555 1_555
H12 C16 1_555 1_555
C17 C8 1_555 1_555
C18 N1 1_555 1_555
H14 C18 1_555 1_555
C24 C1 1_555 1_555
H17 C24 1_555 1_555
N4 N2 1_555 1_555
C31 C33 1_555 1_555
C33 N4 1_555 1_555
H23 C33 1_555 1_555
C34 C31 1_555 1_555
H24 C34 1_555 1_555
C35 C31 1_555 1_555
H25 C35 1_555 1_555
O13 Ni1 1_555 1_555
C3 C5 1_555 1_555
C9 C11 1_555 1_555
C10 C16 1_555 1_555
C11 C12 1_555 1_555
C15 C18 1_555 1_555
C32 C35 1_555 1_555
C34 C36 1_555 1_555
H9 C13 1_555 1_555
O8 C23 1_555 1_555
C20 C19 1_555 1_555
H15 C20 1_555 1_555
C22 C20 1_555 1_555
C23 C22 1_555 1_555
C13 C19 1_555 1_555
C21 C22 1_555 1_555
C1_2 C7_2 1_555 1_555
O6_2 C12_2 1_555 1_555
N2_2 C14_2 1_555 1_555
C2_2 C14_2 1_555 1_555
C5_2 O14 1_555 1_555
C7_2 H5_2 1_555 1_555
C8_2 C3_2 1_555 1_555
H6_2 C8_2 1_555 1_555
C9_2 H7_2 1_555 1_555
C10_2 N5 1_555 1_555
H8_2 C10_2 1_555 1_555
C11_2 C7_2 1_555 1_555
C12_2 O12 1_555 1_555
C13_2 C9_2 1_555 1_555
H9_2 C13_2 1_555 1_555
C15_2 C2_2 1_555 1_555
H11_2 C15_2 1_555 1_555
C16_2 C2_2 1_555 1_555
H12_2 C16_2 1_555 1_555
C17_2 C8_2 1_555 1_555
C18_2 N5 1_555 1_555
H14_2 C18_2 1_555 1_555
C19_2 C1_2 1_555 1_555
O8_2 C23_2 1_555 1_555
C20_2 C19_2 1_555 1_555
H15_2 C20_2 1_555 1_555
C21_2 H16_2 1_555 1_555
C22_2 C20_2 1_555 1_555
C23_2 C22_2 1_555 1_555
C24_2 C1_2 1_555 1_555
H17_2 C24_2 1_555 1_555
C3_2 C5_2 1_555 1_555
C9_2 C11_2 1_555 1_555
C10_2 C16_2 1_555 1_555
C11_2 C12_2 1_555 1_555
C13_2 C19_2 1_555 1_555
C15_2 C18_2 1_555 1_555
C21_2 C22_2 1_555 1_555
C21_2 C24_2 1_555 1_555
C31_2 C33_2 1_555 1_555
C33_2 N4_2 1_555 1_555
C34_2 C31_2 1_555 1_555
H24_2 C34_2 1_555 1_555
C35_2 C31_2 1_555 1_555
H25_2 C35_2 1_555 1_555
C32_2 C35_2 1_555 1_555
C34_2 C36_2 1_555 1_555
C4_2 H4_2 1_555 1_555
C6_2 C4_2 1_555 1_555
O10 C27 1_555 1_555
C27 C25 1_555 1_555
C29 C25 1_555 1_555
H20 C29 1_555 1_555
Ni3 O10 1_555 1_555
C29 C30 1_555 1_555
C26 H19 1_555 1_555
Ni4 O9 1_555 1_555
C26 C28 1_555 1_555
C26_2 H19_2 1_555 1_555
Ni3 O9_2 1_555 1_555
C26_2 C28_2 1_555 1_555
O10_2 C27_2 1_555 1_555
C27_2 C25_2 1_555 1_555
C29_2 C25_2 1_555 1_555
H20_2 C29_2 1_555 1_555
Ni4 O10_2 1_555 1_555
C29_2 C30_2 1_555 1_555
C1_3 C7_3 1_555 1_555
O6_3 C12_3 1_555 1_555
N2_3 C14_3 1_555 1_555
C2_3 C14_3 1_555 1_555
C7_3 H5_3 1_555 1_555
C11_3 C7_3 1_555 1_555
C14_3 H10_3 1_555 1_555
C15_3 C2_3 1_555 1_555
H11_3 C15_3 1_555 1_555
C16_3 C2_3 1_555 1_555
H12_3 C16_3 1_555 1_555
C24_3 C1_3 1_555 1_555
H17_3 C24_3 1_555 1_555
N3 C32_3 1_555 1_555
N4_3 N2_3 1_555 1_555
C31_3 C33_3 1_555 1_555
C32_3 H22 1_555 1_555
C33_3 N4_3 1_555 1_555
H23_3 C33_3 1_555 1_555
C34_3 C31_3 1_555 1_555
H24_3 C34_3 1_555 1_555
C35_3 C31_3 1_555 1_555
H25_3 C35_3 1_555 1_555
C36_3 N3 1_555 1_555
H26 C36_3 1_555 1_555
Ni3 N3 1_555 1_555
C9_3 C11_3 1_555 1_555
C10_3 C16_3 1_555 1_555
C11_3 C12_3 1_555 1_555
C15_3 C18_3 1_555 1_555
C32_3 C35_3 1_555 1_555
C34_3 C36_3 1_555 1_555
H9_3 C13_3 1_555 1_555
O7 C23_3 1_555 1_555
O8_3 C23_3 1_555 1_555
C20_3 C19_3 1_555 1_555
H15_3 C20_3 1_555 1_555
C22_3 C20_3 1_555 1_555
C23_3 C22_3 1_555 1_555
Ni3 O7 1_555 1_555
C13_3 C19_3 1_555 1_555
C21_3 C22_3 1_555 1_555
C1_4 C7_4 1_555 1_555
O6_4 C12_4 1_555 1_555
N2_4 C14_4 1_555 1_555
C2_4 C14_4 1_555 1_555
C7_4 H5_4 1_555 1_555
C9_4 H7_4 1_555 1_555
C11_4 C7_4 1_555 1_555
C13_4 C9_4 1_555 1_555
H9_4 C13_4 1_555 1_555
C15_4 C2_4 1_555 1_555
H11_4 C15_4 1_555 1_555
C16_4 C2_4 1_555 1_555
H12_4 C16_4 1_555 1_555
C19_4 C1_4 1_555 1_555
O7_2 C23_4 1_555 1_555
O8_4 C23_4 1_555 1_555
C20_4 C19_4 1_555 1_555
H15_4 C20_4 1_555 1_555
C21_4 H16_4 1_555 1_555
C22_4 C20_4 1_555 1_555
C23_4 C22_4 1_555 1_555
C24_4 C1_4 1_555 1_555
H17_4 C24_4 1_555 1_555
Ni4 O7_2 1_555 1_555
C9_4 C11_4 1_555 1_555
C10_4 C16_4 1_555 1_555
C11_4 C12_4 1_555 1_555
C13_4 C19_4 1_555 1_555
C15_4 C18_4 1_555 1_555
C21_4 C22_4 1_555 1_555
C21_4 C24_4 1_555 1_555
N3_2 C32_4 1_555 1_555
C31_4 C33_4 1_555 1_555
C32_4 H22_2 1_555 1_555
C33_4 N4_4 1_555 1_555
C34_4 C31_4 1_555 1_555
H24_4 C34_4 1_555 1_555
C35_4 C31_4 1_555 1_555
H25_4 C35_4 1_555 1_555
C36_4 N3_2 1_555 1_555
H26_2 C36_4 1_555 1_555
Ni4 N3_2 1_555 1_555
C32_4 C35_4 1_555 1_555
C34_4 C36_4 1_555 1_555
Ni3 O1_3 1_555 1_555
O1_3 H1_4 1_555 1_555
O2_2 Ni3 1_555 1_555
H2_2 O2_2 1_555 1_555
H3_2 O2_2 1_555 1_555
H18_4 O1_4 1_555 1_555
Ni4 O1_4 1_555 1_555
O11_2 Ni4 1_555 1_555
H27_2 O11_2 1_555 1_555
H28_2 O11_2 1_555 1_555
Ni6 N3_3 1_555 1_555
Ni6 O7_3 1_555 1_555
Ni5 O7_4 1_555 1_555
Ni5 N3_4 1_555 1_555
Ni1_2 O1_5 1_555 1_555
O2_3 Ni1_2 1_555 1_555
H2_3 O2_3 1_555 1_555
H3_3 O2_3 1_555 1_555
O3_2 Ni1_2 1_555 1_555
O4_2 C5_3 1_555 1_555
O5_2 Ni1_2 1_555 1_555
N1_2 Ni1_2 1_555 1_555
C3_3 C4_3 1_555 1_555
C4_3 H4_3 1_555 1_555
C5_3 O5_2 1_555 1_555
C6_3 C4_3 1_555 1_555
C8_3 C3_3 1_555 1_555
H6_3 C8_3 1_555 1_555
C17_3 C8_3 1_555 1_555
Ni2_2 O1_5 1_555 1_555
O11_3 Ni2_2 1_555 1_555
H27_3 O11_3 1_555 1_555
H28_3 O11_3 1_555 1_555
O12_2 Ni2_2 1_555 1_555
O13_2 Ni1_2 1_555 1_555
O14_2 Ni2_2 1_555 1_555
N5_2 Ni2_2 1_555 1_555
O4_2 Ni2_2 1_555 1_555
C3_3 C5_3 1_555 1_555
O9_3 C27_3 1_555 1_555
O10_3 C27_3 1_555 1_555
C25_3 C26_3 1_555 1_555
C26_3 H19_3 1_555 1_555
C27_3 C25_3 1_555 1_555
C29_3 C25_3 1_555 1_555
H20_3 C29_3 1_555 1_555
Ni6 O10_3 1_555 1_555
Ni5 O9_3 1_555 1_555
C26_3 C28_3 1_555 1_555
C29_3 C30_3 1_555 1_555
O13_2 C5_4 1_555 1_555
C3_4 C4_4 1_555 1_555
C4_4 H4_4 1_555 1_555
C5_4 O14_2 1_555 1_555
C6_4 C4_4 1_555 1_555
C8_4 C3_4 1_555 1_555
H6_4 C8_4 1_555 1_555
C17_4 C8_4 1_555 1_555
H13_4 C17_4 1_555 1_555
O9_4 C27_4 1_555 1_555
O10_4 C27_4 1_555 1_555
C25_4 C26_4 1_555 1_555
C26_4 H19_4 1_555 1_555
C27_4 C25_4 1_555 1_555
C28_4 C6_4 1_555 1_555
C29_4 C25_4 1_555 1_555
H20_4 C29_4 1_555 1_555
C30_4 C6_4 1_555 1_555
H21_4 C30_4 1_555 1_555
Ni5 O10_4 1_555 1_555
Ni6 O9_4 1_555 1_555
C3_4 C5_4 1_555 1_555
C17_4 C28_4 1_555 1_555
C26_4 C28_4 1_555 1_555
C29_4 C30_4 1_555 1_555
Ni6 O1_6 1_555 1_555
O2_4 Ni6 1_555 1_555
H2_4 O2_4 1_555 1_555
H3_4 O2_4 1_555 1_555
Ni5 O1_6 1_555 1_555
O11_4 Ni5 1_555 1_555
H27_4 O11_4 1_555 1_555
H28_4 O11_4 1_555 1_555

#END
