
###############################################################################
#
# This file contains modified crystal structure data generated from the
# MOF subset of the Cambridge Structural Database (CSD) v543 
# hosted by the Cambridge Crystallographic Data Centre (CCDC).
#
# This work is licensed under the Creative Commons
# Attribution-NonCommercial-ShareAlike 4.0 International License.
# To view a copy of this license, visit
# http://creativecommons.org/licenses/by-nc-sa/4.0/
# or send a letter to
# Creative Commons, PO Box 1866, Mountain View, CA 94042, USA.
#
# CIF created using the CSD Python API on 29 September 2022
# The structure has been converted into the P1 space group
# The structure has a 3D framework
# The original CSD entry ZUJGAP is in the triclinic crystal system
# The framework has been calculated to contain at least 10.0% void space
# The void calculation uses a probe of radius 1.32A, grid spacing 0.4
#
###############################################################################

data_ZUJGAP
_chemical_formula_moiety         '(C36 H22 Co2 N4 O7)n'
_symmetry_cell_setting           triclinic
_symmetry_space_group_name_H-M   'P 1'
_symmetry_Int_Tables_number      1
_space_group_name_Hall           'P 1'
loop_
_symmetry_equiv_pos_site_id
_symmetry_equiv_pos_as_xyz
1 x,y,z
_cell_length_a                   7.817(3)
_cell_length_b                   10.649(5)
_cell_length_c                   13.016(6)
_cell_angle_alpha                68.478(5)
_cell_angle_beta                 75.966(6)
_cell_angle_gamma                89.611(6)
_cell_volume                     973.802
loop_
_atom_site_label
_atom_site_type_symbol
_atom_site_fract_x
_atom_site_fract_y
_atom_site_fract_z
_atom_site_U_iso_or_equiv
_atom_site_thermal_displace_type
O6 O 0.2298(4) 0.0938(3) 0.0323(2) 0.0376 Uani
C30 C 0.0432(5) 0.3222(4) 0.0175(3) 0.0354 Uani
H3 H 0.0204 0.7613 0.9592 0.0420 Uiso
O5 O 0.4852(4) 0.2260(3) 0.9466(2) 0.0407 Uani
C25 C 0.3196(5) 0.2081(4) 0.9873(3) 0.0325 Uani
C26 C 0.2241(5) 0.3313(4) 0.9841(3) 0.0307 Uani
C27 C 0.3194(5) 0.4567(4) 0.9512(4) 0.0432 Uani
H17 H 0.4425 0.4632 0.9291 0.0520 Uiso
C28 C 0.2358(5) 0.5689(4) 0.9509(4) 0.0441 Uani
H18 H 0.3025 0.6507 0.9294 0.0530 Uiso
C29 C 0.0492(5) 0.5634(4) 0.9828(4) 0.0337 Uani
Co8 Co 0.65893(7) 0.08195(5) 0.94633(4) 0.0262 Uani
O4 O 0.6893(4) 0.0782(3) 0.0966(2) 0.0430 Uani
C7 C 0.5648(6) 0.0123(4) 0.1826(4) 0.0369 Uani
C8 C 0.5684(6) 0.0169(5) 0.2958(4) 0.0440 Uani
C9 C 0.7112(8) 0.0865(6) 0.3059(4) 0.0756 Uani
H4 H 0.8055 0.1278 0.2421 0.0900 Uiso
C10 C 0.7139(8) 0.0946(7) 0.4071(4) 0.0904 Uani
H5 H 0.8111 0.1396 0.4123 0.1080 Uiso
C11 C 0.5724(6) 0.0360(5) 0.5039(4) 0.0523 Uani
O7 O 0.5649(4) 0.0545(3) 0.8205(2) 0.0439 Uani
C36 C 0.5674(7) 0.0431(5) 0.6105(4) 0.0507 Uani
H22 H 0.6610 0.0907 0.6168 0.0610 Uiso
N3 N 0.8703(4) 0.2127(3) 0.8269(3) 0.0374 Uani
C22 C 0.9812(9) 0.4261(7) 0.6828(6) 0.1357 Uani
H14 H 0.9590 0.5138 0.6415 0.1630 Uiso
C23 C 0.8438(8) 0.3363(6) 0.7645(6) 0.1075 Uani
H15 H 0.7300 0.3640 0.7755 0.1290 Uiso
Co5 Co 0.34107(7) 0.91805(5) 0.05367(4) 0.0262 Uani
N1 N 0.1297(4) 0.7873(3) 0.1731(3) 0.0374 Uani
O1 O 0.5148(4) 0.7740(3) 0.0534(2) 0.0407 Uani
O3 O 0.4351(4) 0.9455(3) 0.1795(2) 0.0439 Uani
C1 C 0.6804(5) 0.7919(4) 0.0127(3) 0.0325 Uani
C2 C 0.7759(5) 0.6687(4) 0.0159(3) 0.0307 Uani
C3 C 0.6806(5) 0.5433(4) 0.0488(4) 0.0432 Uani
H1 H 0.5575 0.5368 0.0709 0.0520 Uiso
C4 C 0.7642(5) 0.4311(4) 0.0491(4) 0.0441 Uani
H2 H 0.6975 0.3493 0.0706 0.0530 Uiso
C5 C 0.9508(5) 0.4366(4) 0.0172(4) 0.0337 Uani
C12 C 0.4326(7) 0.9569(5) 0.3895(4) 0.0507 Uani
H6 H 0.3390 0.9093 0.3832 0.0610 Uiso
C16 C 0.0188(9) 0.5739(7) 0.3172(6) 0.1357 Uani
H9 H 0.0410 0.4862 0.3585 0.1630 Uiso
C17 C 0.1562(8) 0.6637(6) 0.2355(6) 0.1075 Uani
H10 H 0.2700 0.6360 0.2245 0.1290 Uiso
H19 H 0.9796 0.2387 0.0408 0.0420 Uiso
O8 O 0.3107(4) 0.9218(3) 0.9034(2) 0.0430 Uani
C31 C 0.4352(6) 0.9877(4) 0.8174(4) 0.0369 Uani
C32 C 0.4316(6) 0.9831(5) 0.7042(4) 0.0440 Uani
C33 C 0.2888(8) 0.9135(6) 0.6941(4) 0.0756 Uani
H20 H 0.1945 0.8722 0.7579 0.0900 Uiso
C34 C 0.2861(8) 0.9054(7) 0.5929(4) 0.0904 Uani
H21 H 0.1889 0.8604 0.5877 0.1080 Uiso
C35 C 0.4276(6) 0.9640(5) 0.4961(4) 0.0523 Uani
O2 O 0.7702(4) 0.9062(3) 0.9677(2) 0.0376 Uani
C6 C 0.9568(5) 0.6778(4) 0.9825(3) 0.0354 Uani
N2 N 0.5580(6) 0.5537(5) 0.4544(5) 0.1029 Uani
C13 C 0.9665(5) 0.8202(5) 0.1907(4) 0.0458 Uani
H7 H 0.9455 0.9071 0.1468 0.0550 Uiso
C14 C 0.8248(6) 0.7357(5) 0.2692(4) 0.0631 Uani
H8 H 0.7109 0.7633 0.2751 0.0760 Uiso
C15 C 0.8531(7) 0.6118(6) 0.3377(5) 0.0875 Uani
C18 C 0.7057(8) 0.5152(7) 0.4286(6) 0.1080 Uani
H11 H 0.7258 0.4256 0.4658 0.1300 Uiso
N4 N 0.4420(6) 0.4463(5) 0.5456(5) 0.1029 Uani
C19 C 0.0335(5) 0.1798(5) 0.8093(4) 0.0458 Uani
H12 H 0.0545 0.0929 0.8532 0.0550 Uiso
C20 C 0.1752(6) 0.2643(5) 0.7308(4) 0.0631 Uani
H13 H 0.2891 0.2367 0.7249 0.0760 Uiso
C21 C 0.1469(7) 0.3882(6) 0.6623(5) 0.0875 Uani
C24 C 0.2943(8) 0.4848(7) 0.5714(6) 0.1080 Uani
H16 H 0.2742 0.5744 0.5342 0.1300 Uiso
loop_
_atom_site_aniso_label
_atom_site_aniso_U_11
_atom_site_aniso_U_22
_atom_site_aniso_U_33
_atom_site_aniso_U_23
_atom_site_aniso_U_13
_atom_site_aniso_U_12
O6 0.0312 0.0267 0.0521 -0.0142 -0.0065 0.0031
C30 0.028 0.025 0.052 -0.014 -0.009 -0.0002
O5 0.0279 0.0331 0.0546 -0.0145 -0.0022 0.0067
C25 0.029 0.036 0.034 -0.015 -0.0081 0.01
C26 0.027 0.023 0.042 -0.0133 -0.0072 0.0033
C27 0.019 0.037 0.071 -0.021 -0.006 0.004
C28 0.023 0.029 0.074 -0.019 -0.002 -0.0015
C29 0.026 0.03 0.044 -0.014 -0.007 -0.0014
Co8 0.0206 0.0253 0.0297 -0.0097 -0.0019 0.0002
O4 0.0457 0.049 0.0333 -0.0166 -0.0068 0.0009
C7 0.047 0.039 0.032 -0.018 -0.016 0.014
C8 0.046 0.052 0.033 -0.015 -0.01 -0.001
C9 0.068 0.117 0.034 -0.029 0.003 -0.048
C10 0.09 0.135 0.037 -0.034 0.005 -0.069
C11 0.053 0.065 0.035 -0.018 -0.005 -0.019
O7 0.049 0.048 0.0375 -0.0178 -0.0134 -0.0031
C36 0.056 0.061 0.037 -0.021 -0.011 -0.013
N3 0.0218 0.032 0.045 -0.0046 -0.0001 0.0026
C22 0.058 0.087 0.158 0.04 0.022 0.021
C23 0.047 0.068 0.121 0.031 0.028 0.015
Co5 0.0206 0.0253 0.0297 -0.0097 -0.0019 0.0002
N1 0.0218 0.032 0.045 -0.0046 -0.0001 0.0026
O1 0.0279 0.0331 0.0546 -0.0145 -0.0022 0.0067
O3 0.049 0.048 0.0375 -0.0178 -0.0134 -0.0031
C1 0.029 0.036 0.034 -0.015 -0.0081 0.01
C2 0.027 0.023 0.042 -0.0133 -0.0072 0.0033
C3 0.019 0.037 0.071 -0.021 -0.006 0.004
C4 0.023 0.029 0.074 -0.019 -0.002 -0.0015
C5 0.026 0.03 0.044 -0.014 -0.007 -0.0014
C12 0.056 0.061 0.037 -0.021 -0.011 -0.013
C16 0.058 0.087 0.158 0.04 0.022 0.021
C17 0.047 0.068 0.121 0.031 0.028 0.015
O8 0.0457 0.049 0.0333 -0.0166 -0.0068 0.0009
C31 0.047 0.039 0.032 -0.018 -0.016 0.014
C32 0.046 0.052 0.033 -0.015 -0.01 -0.001
C33 0.068 0.117 0.034 -0.029 0.003 -0.048
C34 0.09 0.135 0.037 -0.034 0.005 -0.069
C35 0.053 0.065 0.035 -0.018 -0.005 -0.019
O2 0.0312 0.0267 0.0521 -0.0142 -0.0065 0.0031
C6 0.028 0.025 0.052 -0.014 -0.009 -0.0002
N2 0.048 0.073 0.118 0.009 0.033 -0.008
C13 0.029 0.036 0.051 0 0.002 0.001
C14 0.025 0.057 0.078 -0.005 0.007 0.001
C15 0.036 0.059 0.098 0.025 0.021 -0.001
C18 0.053 0.076 0.121 0.02 0.02 -0.001
N4 0.048 0.073 0.118 0.009 0.033 -0.008
C19 0.029 0.036 0.051 0 0.002 0.001
C20 0.025 0.057 0.078 -0.005 0.007 0.001
C21 0.036 0.059 0.098 0.025 0.021 -0.001
C24 0.053 0.076 0.121 0.02 0.02 -0.001
loop_
_geom_bond_atom_site_label_1
_geom_bond_atom_site_label_2
_geom_bond_site_symmetry_1
_geom_bond_site_symmetry_2
O5 C25 1_555 1_555
C25 C26 1_555 1_555
C26 C27 1_555 1_555
C27 H17 1_555 1_555
C28 C27 1_555 1_555
H18 C28 1_555 1_555
Co8 O5 1_555 1_555
C28 C29 1_555 1_555
O4 C7 1_555 1_555
C8 C7 1_555 1_555
C9 C8 1_555 1_555
H4 C9 1_555 1_555
C10 C9 1_555 1_555
H5 C10 1_555 1_555
C11 C10 1_555 1_555
C36 C11 1_555 1_555
H22 C36 1_555 1_555
Co8 O7 1_555 1_555
H14 C22 1_555 1_555
C23 N3 1_555 1_555
H15 C23 1_555 1_555
Co8 N3 1_555 1_555
C22 C23 1_555 1_555
Co5 N1 1_555 1_555
O1 Co5 1_555 1_555
O3 Co5 1_555 1_555
C1 O1 1_555 1_555
C2 C1 1_555 1_555
C3 C2 1_555 1_555
H1 C3 1_555 1_555
C4 C3 1_555 1_555
H2 C4 1_555 1_555
C5 C4 1_555 1_555
H6 C12 1_555 1_555
H9 C16 1_555 1_555
C17 N1 1_555 1_555
H10 C17 1_555 1_555
O8 C31 1_555 1_555
C31 C32 1_555 1_555
C32 C33 1_555 1_555
C33 H20 1_555 1_555
C34 C33 1_555 1_555
H21 C34 1_555 1_555
C12 C35 1_555 1_555
C16 C17 1_555 1_555
C34 C35 1_555 1_555
N2 C18 1_555 1_555
C13 H7 1_555 1_555
C14 C13 1_555 1_555
H8 C14 1_555 1_555
C15 C14 1_555 1_555
C18 C15 1_555 1_555
H11 C18 1_555 1_555
N4 N2 1_555 1_555
C19 H12 1_555 1_555
C20 C19 1_555 1_555
H13 C20 1_555 1_555
C21 C20 1_555 1_555
C24 N4 1_555 1_555
H16 C24 1_555 1_555
C21 C24 1_555 1_555

#END
