
###############################################################################
#
# This file contains modified crystal structure data generated from the
# MOF subset of the Cambridge Structural Database (CSD) v543 
# hosted by the Cambridge Crystallographic Data Centre (CCDC).
#
# This work is licensed under the Creative Commons
# Attribution-NonCommercial-ShareAlike 4.0 International License.
# To view a copy of this license, visit
# http://creativecommons.org/licenses/by-nc-sa/4.0/
# or send a letter to
# Creative Commons, PO Box 1866, Mountain View, CA 94042, USA.
#
# CIF created using the CSD Python API on 29 September 2022
# The structure has been converted into the P1 space group
# The structure has a 3D framework
# The original CSD entry ZUJXIO is in the orthorhombic crystal system
# The framework has been calculated to contain at least 10.0% void space
# The void calculation uses a probe of radius 1.32A, grid spacing 0.4
# H atom positions have been added when not included in the experimental data
# Generated hydrogen atom positions removed from atoms on special positions
#
###############################################################################

data_ZUJXIO
_chemical_formula_moiety         '(C136 H192 O82 S16 Zr22)n'
_symmetry_cell_setting           triclinic
_symmetry_space_group_name_H-M   'P 1'
_symmetry_Int_Tables_number      1
_space_group_name_Hall           'P 1'
loop_
_symmetry_equiv_pos_site_id
_symmetry_equiv_pos_as_xyz
1 x,y,z
_cell_length_a                   22.8669
_cell_length_b                   40.1130
_cell_length_c                   13.2921
_cell_angle_alpha                90
_cell_angle_beta                 90
_cell_angle_gamma                90
_cell_volume                     12192.3
loop_
_atom_site_label
_atom_site_type_symbol
_atom_site_fract_x
_atom_site_fract_y
_atom_site_fract_z
Zr12 Zr 0.00000 0.94183 0.00000
Zr12_2 Zr 0.00000 0.94183 1.00000
Zr9 Zr 0.92515 0.00000 0.12779
Zr11 Zr 0.92515 0.00000 0.87221
Zr8 Zr 0.50000 0.55817 0.00000
Zr12_3 Zr 1.00000 0.94183 0.00000
O1 O 0.55233 0.58722 0.10005
O2 O 0.50000 0.52966 0.13329
O3 O 0.57899 0.53075 0.00000
C1 C 0.58781 0.57781 0.17153
Zr2 Zr 0.57485 0.50000 0.12779
O4 O 0.60165 0.54674 0.18997
C2 C 0.61338 0.60413 0.24041
O5 O 0.66672 0.50000 0.11097
O6 O 0.57425 0.50000 0.28740
C3 C 0.58883 0.63665 0.24723
C4 C 0.66119 0.59643 0.30418
H1 H 0.55245 0.64371 0.19915
C5 C 0.61065 0.66040 0.31695
C6 C 0.68366 0.62043 0.37230
H2 H 0.68206 0.57193 0.30030
H3 H 0.59096 0.68524 0.31987
C7 C 0.65783 0.65244 0.38142
H4 H 0.72252 0.61423 0.41523
C8 C 0.68459 0.67913 0.44684
S1 S 0.71575 0.71346 0.38868
C9 C 0.73443 0.73324 0.50000
O8 O 0.44767 0.58722 0.10005
O11 O 0.42101 0.53075 0.00000
Zr3 Zr 0.42515 0.50000 0.12779
O12 O 0.57899 0.46925 0.00000
O13 O 0.60165 0.45326 0.18997
O14 O 0.50000 0.47034 0.13329
Zr6 Zr 0.50000 0.44183 0.00000
C10 C 0.68459 0.67913 0.55316
C11 C 0.65783 0.65244 0.61858
S2 S 0.71575 0.71346 0.61132
C12 C 0.76557 0.76676 0.50000
C13 C 0.61065 0.66040 0.68305
C14 C 0.68366 0.62043 0.62770
S3 S 0.78425 0.78654 0.38868
S4 S 0.78425 0.78654 0.61132
C15 C 0.58883 0.63665 0.75277
H5 H 0.59096 0.68524 0.68013
H6 H 0.72252 0.61423 0.58477
C16 C 0.66119 0.59643 0.69582
C17 C 0.81541 0.82087 0.44684
C18 C 0.81541 0.82087 0.55316
C19 C 0.61338 0.60413 0.75959
H7 H 0.55245 0.64371 0.80085
H8 H 0.68206 0.57193 0.69970
C20 C 0.84217 0.84756 0.38142
C21 C 0.84217 0.84756 0.61858
C22 C 0.58781 0.57781 0.82847
C23 C 0.88935 0.83960 0.31695
C24 C 0.81634 0.87957 0.37230
C25 C 0.88935 0.83960 0.68305
C26 C 0.81634 0.87957 0.62770
O20 O 0.60165 0.54674 0.81003
O21 O 0.55233 0.58722 0.89995
C27 C 0.91117 0.86335 0.24723
H9 H 0.90904 0.81476 0.31987
H10 H 0.77748 0.88577 0.41523
C28 C 0.83881 0.90357 0.30418
C29 C 0.91117 0.86335 0.75277
H11 H 0.90904 0.81476 0.68013
H12 H 0.77748 0.88577 0.58477
C30 C 0.83881 0.90357 0.69582
Zr7 Zr 0.57485 0.50000 0.87221
Zr8_2 Zr 0.50000 0.55817 1.00000
C31 C 0.88662 0.89587 0.24041
H13 H 0.94755 0.85629 0.19915
H14 H 0.81794 0.92807 0.30030
C32 C 0.88662 0.89587 0.75959
H15 H 0.94755 0.85629 0.80085
H16 H 0.81794 0.92807 0.69970
C33 C 0.91219 0.92219 0.17153
C34 C 0.91219 0.92219 0.82847
O22 O 0.89835 0.95326 0.18997
O23 O 0.94767 0.91278 0.10005
O24 O 0.89835 0.95326 0.81003
O25 O 0.94767 0.91278 0.89995
Zr9_2 Zr 0.92515 1.00000 0.12779
Zr11_2 Zr 0.92515 1.00000 0.87221
Zr12_4 Zr 1.00000 0.94183 1.00000
O3_2 O 0.57899 0.53075 1.00000
O7 O 0.44767 0.58722 0.89995
O10 O 0.50000 0.52966 0.86671
O11_2 O 0.42101 0.53075 1.00000
Zr5 Zr 0.42515 0.50000 0.87221
O12_2 O 0.57899 0.46925 1.00000
O15 O 0.66672 0.50000 0.88903
O16 O 0.57425 0.50000 0.71260
O17 O 0.50000 0.47034 0.86671
O18 O 0.60165 0.45326 0.81003
Zr6_2 Zr 0.50000 0.44183 1.00000
Zr10 Zr 0.00000 0.05817 0.00000
Zr10_2 Zr 0.00000 0.05817 1.00000
O7_2 O 0.44767 0.41278 0.10005
O9 O 0.55233 0.41278 0.10005
O11_3 O 0.42101 0.46925 0.00000
Zr10_3 Zr 1.00000 0.05817 0.00000
O1_2 O 0.55233 0.41278 0.89995
C1_2 C 0.58781 0.42219 0.82847
C2_2 C 0.61338 0.39587 0.75959
C3_2 C 0.58883 0.36335 0.75277
C4_2 C 0.66119 0.40357 0.69582
H1_2 H 0.55245 0.35629 0.80085
C5_2 C 0.61065 0.33960 0.68305
C6_2 C 0.68366 0.37957 0.62770
H2_2 H 0.68206 0.42807 0.69970
H3_2 H 0.59096 0.31476 0.68013
C7_2 C 0.65783 0.34756 0.61858
H4_2 H 0.72252 0.38577 0.58477
C8_2 C 0.68459 0.32087 0.55316
S1_2 S 0.71575 0.28654 0.61132
C9_2 C 0.73443 0.26676 0.50000
O8_2 O 0.44767 0.41278 0.89995
O11_4 O 0.42101 0.46925 1.00000
C10_2 C 0.68459 0.32087 0.44684
C11_2 C 0.65783 0.34756 0.38142
S2_2 S 0.71575 0.28654 0.38868
C12_2 C 0.76557 0.23324 0.50000
C13_2 C 0.61065 0.33960 0.31695
C14_2 C 0.68366 0.37957 0.37230
S3_2 S 0.78425 0.21346 0.61132
S4_2 S 0.78425 0.21346 0.38868
C15_2 C 0.58883 0.36335 0.24723
H5_2 H 0.59096 0.31476 0.31987
H6_2 H 0.72252 0.38577 0.41523
C16_2 C 0.66119 0.40357 0.30418
C17_2 C 0.81541 0.17913 0.55316
C18_2 C 0.81541 0.17913 0.44684
C19_2 C 0.61338 0.39587 0.24041
H7_2 H 0.55245 0.35629 0.19915
H8_2 H 0.68206 0.42807 0.30030
C20_2 C 0.84217 0.15244 0.61858
C21_2 C 0.84217 0.15244 0.38142
C22_2 C 0.58781 0.42219 0.17153
C23_2 C 0.88935 0.16040 0.68305
C24_2 C 0.81634 0.12043 0.62770
C25_2 C 0.88935 0.16040 0.31695
C26_2 C 0.81634 0.12043 0.37230
C27_2 C 0.91117 0.13665 0.75277
H9_2 H 0.90904 0.18524 0.68013
H10_2 H 0.77748 0.11423 0.58477
C28_2 C 0.83881 0.09643 0.69582
C29_2 C 0.91117 0.13665 0.24723
H11_2 H 0.90904 0.18524 0.31987
H12_2 H 0.77748 0.11423 0.41523
C30_2 C 0.83881 0.09643 0.30418
C31_2 C 0.88662 0.10413 0.75959
H13_2 H 0.94755 0.14371 0.80085
H14_2 H 0.81794 0.07193 0.69970
C32_2 C 0.88662 0.10413 0.24041
H15_2 H 0.94755 0.14371 0.19915
H16_2 H 0.81794 0.07193 0.30030
C33_2 C 0.91219 0.07781 0.82847
C34_2 C 0.91219 0.07781 0.17153
O22_2 O 0.89835 0.04674 0.81003
O23_2 O 0.94767 0.08722 0.89995
O24_2 O 0.89835 0.04674 0.18997
O25_2 O 0.94767 0.08722 0.10005
Zr10_4 Zr 1.00000 0.05817 1.00000
Zr9_3 Zr 0.07485 0.00000 0.87221
Zr11_3 Zr 0.07485 0.00000 0.12779
O15_2 O 0.33328 0.50000 0.11097
O16_2 O 0.42575 0.50000 0.28740
O18_2 O 0.39835 0.45326 0.18997
O19 O 0.39835 0.54674 0.18997
C1_3 C 0.41219 0.57781 0.82847
O4_2 O 0.39835 0.54674 0.81003
C2_3 C 0.38662 0.60413 0.75959
O5_2 O 0.33328 0.50000 0.88903
O6_2 O 0.42575 0.50000 0.71260
C3_3 C 0.41117 0.63665 0.75277
C4_3 C 0.33881 0.59643 0.69582
H1_3 H 0.44755 0.64371 0.80085
C5_3 C 0.38935 0.66040 0.68305
C6_3 C 0.31634 0.62043 0.62770
H2_3 H 0.31794 0.57193 0.69970
H3_3 H 0.40904 0.68524 0.68013
C7_3 C 0.34217 0.65244 0.61858
H4_3 H 0.27748 0.61423 0.58477
C8_3 C 0.31541 0.67913 0.55316
S1_3 S 0.28425 0.71346 0.61132
C9_3 C 0.26557 0.73324 0.50000
O13_2 O 0.39835 0.45326 0.81003
C10_3 C 0.31541 0.67913 0.44684
C11_3 C 0.34217 0.65244 0.38142
S2_3 S 0.28425 0.71346 0.38868
C12_3 C 0.23443 0.76676 0.50000
C13_3 C 0.38935 0.66040 0.31695
C14_3 C 0.31634 0.62043 0.37230
S3_3 S 0.21575 0.78654 0.61132
S4_3 S 0.21575 0.78654 0.38868
C15_3 C 0.41117 0.63665 0.24723
H5_3 H 0.40904 0.68524 0.31987
H6_3 H 0.27748 0.61423 0.41523
C16_3 C 0.33881 0.59643 0.30418
C17_3 C 0.18459 0.82087 0.55316
C18_3 C 0.18459 0.82087 0.44684
C19_3 C 0.38662 0.60413 0.24041
H7_3 H 0.44755 0.64371 0.19915
H8_3 H 0.31794 0.57193 0.30030
C20_3 C 0.15783 0.84756 0.61858
C21_3 C 0.15783 0.84756 0.38142
C22_3 C 0.41219 0.57781 0.17153
C23_3 C 0.11065 0.83960 0.68305
C24_3 C 0.18366 0.87957 0.62770
C25_3 C 0.11065 0.83960 0.31695
C26_3 C 0.18366 0.87957 0.37230
C27_3 C 0.08883 0.86335 0.75277
H9_3 H 0.09096 0.81476 0.68013
H10_3 H 0.22252 0.88577 0.58477
C28_3 C 0.16119 0.90357 0.69582
C29_3 C 0.08883 0.86335 0.24723
H11_3 H 0.09096 0.81476 0.31987
H12_3 H 0.22252 0.88577 0.41523
C30_3 C 0.16119 0.90357 0.30418
C31_3 C 0.11338 0.89587 0.75959
H13_3 H 0.05245 0.85629 0.80085
H14_3 H 0.18206 0.92807 0.69970
C32_3 C 0.11338 0.89587 0.24041
H15_3 H 0.05245 0.85629 0.19915
H16_3 H 0.18206 0.92807 0.30030
C33_3 C 0.08781 0.92219 0.82847
C34_3 C 0.08781 0.92219 0.17153
O22_3 O 0.10165 0.95326 0.81003
O23_3 O 0.05233 0.91278 0.89995
O24_3 O 0.10165 0.95326 0.18997
O25_3 O 0.05233 0.91278 0.10005
Zr9_4 Zr 0.07485 1.00000 0.87221
Zr11_4 Zr 0.07485 1.00000 0.12779
C1_4 C 0.41219 0.42219 0.17153
C2_4 C 0.38662 0.39587 0.24041
C3_4 C 0.41117 0.36335 0.24723
C4_4 C 0.33881 0.40357 0.30418
H1_4 H 0.44755 0.35629 0.19915
C5_4 C 0.38935 0.33960 0.31695
C6_4 C 0.31634 0.37957 0.37230
H2_4 H 0.31794 0.42807 0.30030
H3_4 H 0.40904 0.31476 0.31987
C7_4 C 0.34217 0.34756 0.38142
H4_4 H 0.27748 0.38577 0.41523
C8_4 C 0.31541 0.32087 0.44684
S1_4 S 0.28425 0.28654 0.38868
C9_4 C 0.26557 0.26676 0.50000
C10_4 C 0.31541 0.32087 0.55316
C11_4 C 0.34217 0.34756 0.61858
S2_4 S 0.28425 0.28654 0.61132
C12_4 C 0.23443 0.23324 0.50000
C13_4 C 0.38935 0.33960 0.68305
C14_4 C 0.31634 0.37957 0.62770
S3_4 S 0.21575 0.21346 0.38868
S4_4 S 0.21575 0.21346 0.61132
C15_4 C 0.41117 0.36335 0.75277
H5_4 H 0.40904 0.31476 0.68013
H6_4 H 0.27748 0.38577 0.58477
C16_4 C 0.33881 0.40357 0.69582
C17_4 C 0.18459 0.17913 0.44684
C18_4 C 0.18459 0.17913 0.55316
C19_4 C 0.38662 0.39587 0.75959
H7_4 H 0.44755 0.35629 0.80085
H8_4 H 0.31794 0.42807 0.69970
C20_4 C 0.15783 0.15244 0.38142
C21_4 C 0.15783 0.15244 0.61858
C22_4 C 0.41219 0.42219 0.82847
C23_4 C 0.11065 0.16040 0.31695
C24_4 C 0.18366 0.12043 0.37230
C25_4 C 0.11065 0.16040 0.68305
C26_4 C 0.18366 0.12043 0.62770
C27_4 C 0.08883 0.13665 0.24723
H9_4 H 0.09096 0.18524 0.31987
H10_4 H 0.22252 0.11423 0.41523
C28_4 C 0.16119 0.09643 0.30418
C29_4 C 0.08883 0.13665 0.75277
H11_4 H 0.09096 0.18524 0.68013
H12_4 H 0.22252 0.11423 0.58477
C30_4 C 0.16119 0.09643 0.69582
C31_4 C 0.11338 0.10413 0.24041
H13_4 H 0.05245 0.14371 0.19915
H14_4 H 0.18206 0.07193 0.30030
C32_4 C 0.11338 0.10413 0.75959
H15_4 H 0.05245 0.14371 0.80085
H16_4 H 0.18206 0.07193 0.69970
C33_4 C 0.08781 0.07781 0.17153
C34_4 C 0.08781 0.07781 0.82847
O22_4 O 0.10165 0.04674 0.18997
O23_4 O 0.05233 0.08722 0.10005
O24_4 O 0.10165 0.04674 0.81003
O25_4 O 0.05233 0.08722 0.89995
O2_2 O 0.00000 0.02966 0.13329
O3_3 O 0.07899 0.03075 0.00000
O5_3 O 0.16672 0.00000 0.11097
O6_3 O 0.07425 0.00000 0.28740
O3_4 O 0.07899 0.03075 1.00000
O10_2 O 0.00000 0.02966 0.86671
O15_3 O 0.16672 0.00000 0.88903
O16_3 O 0.07425 0.00000 0.71260
O5_4 O 0.16672 1.00000 0.11097
O6_4 O 0.07425 1.00000 0.28740
O12_3 O 0.07899 0.96925 0.00000
O14_2 O 0.00000 0.97034 0.13329
O12_4 O 0.07899 0.96925 1.00000
O15_4 O 0.16672 1.00000 0.88903
O16_4 O 0.07425 1.00000 0.71260
O17_2 O 0.00000 0.97034 0.86671
O2_3 O 1.00000 0.02966 0.13329
O11_5 O 0.92101 0.03075 0.00000
O10_3 O 1.00000 0.02966 0.86671
O11_6 O 0.92101 0.03075 1.00000
O14_3 O 1.00000 0.97034 0.13329
O17_3 O 1.00000 0.97034 0.86671
O11_7 O 0.92101 0.96925 0.00000
O11_8 O 0.92101 0.96925 1.00000
O15_5 O 0.83328 0.00000 0.11097
O16_5 O 0.92575 0.00000 0.28740
O5_5 O 0.83328 0.00000 0.88903
O6_5 O 0.92575 0.00000 0.71260
O15_6 O 0.83328 1.00000 0.11097
O16_6 O 0.92575 1.00000 0.28740
O5_6 O 0.83328 1.00000 0.88903
O6_6 O 0.92575 1.00000 0.71260
loop_
_geom_bond_atom_site_label_1
_geom_bond_atom_site_label_2
_geom_bond_site_symmetry_1
_geom_bond_site_symmetry_2
Zr8 O1 1_555 1_555
O1 C1 1_555 1_555
O2 Zr8 1_555 1_555
O3 Zr8 1_555 1_555
C1 O4 1_555 1_555
Zr2 O2 1_555 1_555
O4 Zr2 1_555 1_555
C2 C1 1_555 1_555
O5 Zr2 1_555 1_555
O6 Zr2 1_555 1_555
C3 C2 1_555 1_555
C4 C2 1_555 1_555
H1 C3 1_555 1_555
C5 C3 1_555 1_555
C6 C4 1_555 1_555
H2 C4 1_555 1_555
H3 C5 1_555 1_555
C7 C5 1_555 1_555
H4 C6 1_555 1_555
C8 C7 1_555 1_555
S1 C8 1_555 1_555
C9 S1 1_555 1_555
O8 Zr8 1_555 1_555
O11 Zr8 1_555 1_555
Zr3 O2 1_555 1_555
O12 Zr2 1_555 1_555
O13 Zr2 1_555 1_555
O14 Zr2 1_555 1_555
Zr6 O12 1_555 1_555
C10 C8 1_555 1_555
C11 C10 1_555 1_555
S2 C9 1_555 1_555
C12 C9 1_555 1_555
C13 C11 1_555 1_555
C14 C11 1_555 1_555
S3 C12 1_555 1_555
S4 C12 1_555 1_555
C15 C13 1_555 1_555
H5 C13 1_555 1_555
H6 C14 1_555 1_555
C16 C14 1_555 1_555
C17 S3 1_555 1_555
C18 S4 1_555 1_555
C19 C15 1_555 1_555
H7 C15 1_555 1_555
H8 C16 1_555 1_555
C20 C17 1_555 1_555
C21 C18 1_555 1_555
C22 C19 1_555 1_555
C23 C20 1_555 1_555
C24 C20 1_555 1_555
C25 C21 1_555 1_555
C26 C21 1_555 1_555
O20 C22 1_555 1_555
O21 C22 1_555 1_555
C27 C23 1_555 1_555
H9 C23 1_555 1_555
H10 C24 1_555 1_555
C28 C24 1_555 1_555
C29 C25 1_555 1_555
H11 C25 1_555 1_555
H12 C26 1_555 1_555
C30 C26 1_555 1_555
Zr7 O20 1_555 1_555
Zr8_2 O21 1_555 1_555
C31 C27 1_555 1_555
H13 C27 1_555 1_555
H14 C28 1_555 1_555
C32 C29 1_555 1_555
H15 C29 1_555 1_555
H16 C30 1_555 1_555
C33 C31 1_555 1_555
C34 C32 1_555 1_555
O22 C33 1_555 1_555
O23 C33 1_555 1_555
O24 C34 1_555 1_555
O25 C34 1_555 1_555
Zr9_2 O22 1_555 1_555
Zr12_3 O23 1_555 1_555
Zr11_2 O24 1_555 1_555
Zr12_4 O25 1_555 1_555
O3 Zr2 1_555 1_555
C6 C7 1_555 1_555
O11 Zr3 1_555 1_555
Zr3 O14 1_555 1_555
O14 Zr6 1_555 1_555
C10 S2 1_555 1_555
C16 C19 1_555 1_555
C17 C18 1_555 1_555
C28 C31 1_555 1_555
C30 C32 1_555 1_555
O3_2 Zr8_2 1_555 1_555
O7 Zr8_2 1_555 1_555
O10 Zr8_2 1_555 1_555
O11_2 Zr8_2 1_555 1_555
Zr7 O3_2 1_555 1_555
Zr5 O10 1_555 1_555
O15 Zr7 1_555 1_555
O16 Zr7 1_555 1_555
O17 Zr7 1_555 1_555
O18 Zr7 1_555 1_555
Zr6_2 O12_2 1_555 1_555
O10 Zr7 1_555 1_555
O11_2 Zr5 1_555 1_555
Zr7 O12_2 1_555 1_555
Zr5 O17 1_555 1_555
O17 Zr6_2 1_555 1_555
O7_2 Zr6 1_555 1_555
O9 Zr6 1_555 1_555
O11_3 Zr6 1_555 1_555
O11_3 Zr3 1_555 1_555
Zr6_2 O1_2 1_555 1_555
O1_2 C1_2 1_555 1_555
C1_2 O18 1_555 1_555
C2_2 C1_2 1_555 1_555
C3_2 C2_2 1_555 1_555
C4_2 C2_2 1_555 1_555
H1_2 C3_2 1_555 1_555
C5_2 C3_2 1_555 1_555
C6_2 C4_2 1_555 1_555
H2_2 C4_2 1_555 1_555
H3_2 C5_2 1_555 1_555
C7_2 C5_2 1_555 1_555
H4_2 C6_2 1_555 1_555
C8_2 C7_2 1_555 1_555
S1_2 C8_2 1_555 1_555
C9_2 S1_2 1_555 1_555
O8_2 Zr6_2 1_555 1_555
O11_4 Zr6_2 1_555 1_555
C10_2 C8_2 1_555 1_555
C11_2 C10_2 1_555 1_555
S2_2 C9_2 1_555 1_555
C12_2 C9_2 1_555 1_555
C13_2 C11_2 1_555 1_555
C14_2 C11_2 1_555 1_555
S3_2 C12_2 1_555 1_555
S4_2 C12_2 1_555 1_555
C15_2 C13_2 1_555 1_555
H5_2 C13_2 1_555 1_555
H6_2 C14_2 1_555 1_555
C16_2 C14_2 1_555 1_555
C17_2 S3_2 1_555 1_555
C18_2 S4_2 1_555 1_555
C19_2 C15_2 1_555 1_555
H7_2 C15_2 1_555 1_555
H8_2 C16_2 1_555 1_555
C20_2 C17_2 1_555 1_555
C21_2 C18_2 1_555 1_555
C22_2 C19_2 1_555 1_555
C23_2 C20_2 1_555 1_555
C24_2 C20_2 1_555 1_555
C25_2 C21_2 1_555 1_555
C26_2 C21_2 1_555 1_555
O13 C22_2 1_555 1_555
O9 C22_2 1_555 1_555
C27_2 C23_2 1_555 1_555
H9_2 C23_2 1_555 1_555
H10_2 C24_2 1_555 1_555
C28_2 C24_2 1_555 1_555
C29_2 C25_2 1_555 1_555
H11_2 C25_2 1_555 1_555
H12_2 C26_2 1_555 1_555
C30_2 C26_2 1_555 1_555
C31_2 C27_2 1_555 1_555
H13_2 C27_2 1_555 1_555
H14_2 C28_2 1_555 1_555
C32_2 C29_2 1_555 1_555
H15_2 C29_2 1_555 1_555
H16_2 C30_2 1_555 1_555
C33_2 C31_2 1_555 1_555
C34_2 C32_2 1_555 1_555
O22_2 C33_2 1_555 1_555
O23_2 C33_2 1_555 1_555
O24_2 C34_2 1_555 1_555
O25_2 C34_2 1_555 1_555
Zr11 O22_2 1_555 1_555
Zr10_4 O23_2 1_555 1_555
Zr9 O24_2 1_555 1_555
Zr10_3 O25_2 1_555 1_555
C6_2 C7_2 1_555 1_555
O11_4 Zr5 1_555 1_555
C10_2 S2_2 1_555 1_555
C16_2 C19_2 1_555 1_555
C17_2 C18_2 1_555 1_555
C28_2 C31_2 1_555 1_555
C30_2 C32_2 1_555 1_555
O15_2 Zr3 1_555 1_555
O16_2 Zr3 1_555 1_555
O18_2 Zr3 1_555 1_555
O19 Zr3 1_555 1_555
O7 C1_3 1_555 1_555
C1_3 O4_2 1_555 1_555
O4_2 Zr5 1_555 1_555
C2_3 C1_3 1_555 1_555
O5_2 Zr5 1_555 1_555
O6_2 Zr5 1_555 1_555
C3_3 C2_3 1_555 1_555
C4_3 C2_3 1_555 1_555
H1_3 C3_3 1_555 1_555
C5_3 C3_3 1_555 1_555
C6_3 C4_3 1_555 1_555
H2_3 C4_3 1_555 1_555
H3_3 C5_3 1_555 1_555
C7_3 C5_3 1_555 1_555
H4_3 C6_3 1_555 1_555
C8_3 C7_3 1_555 1_555
S1_3 C8_3 1_555 1_555
C9_3 S1_3 1_555 1_555
O13_2 Zr5 1_555 1_555
C10_3 C8_3 1_555 1_555
C11_3 C10_3 1_555 1_555
S2_3 C9_3 1_555 1_555
C12_3 C9_3 1_555 1_555
C13_3 C11_3 1_555 1_555
C14_3 C11_3 1_555 1_555
S3_3 C12_3 1_555 1_555
S4_3 C12_3 1_555 1_555
C15_3 C13_3 1_555 1_555
H5_3 C13_3 1_555 1_555
H6_3 C14_3 1_555 1_555
C16_3 C14_3 1_555 1_555
C17_3 S3_3 1_555 1_555
C18_3 S4_3 1_555 1_555
C19_3 C15_3 1_555 1_555
H7_3 C15_3 1_555 1_555
H8_3 C16_3 1_555 1_555
C20_3 C17_3 1_555 1_555
C21_3 C18_3 1_555 1_555
C22_3 C19_3 1_555 1_555
C23_3 C20_3 1_555 1_555
C24_3 C20_3 1_555 1_555
C25_3 C21_3 1_555 1_555
C26_3 C21_3 1_555 1_555
O19 C22_3 1_555 1_555
O8 C22_3 1_555 1_555
C27_3 C23_3 1_555 1_555
H9_3 C23_3 1_555 1_555
H10_3 C24_3 1_555 1_555
C28_3 C24_3 1_555 1_555
C29_3 C25_3 1_555 1_555
H11_3 C25_3 1_555 1_555
H12_3 C26_3 1_555 1_555
C30_3 C26_3 1_555 1_555
C31_3 C27_3 1_555 1_555
H13_3 C27_3 1_555 1_555
H14_3 C28_3 1_555 1_555
C32_3 C29_3 1_555 1_555
H15_3 C29_3 1_555 1_555
H16_3 C30_3 1_555 1_555
C33_3 C31_3 1_555 1_555
C34_3 C32_3 1_555 1_555
O22_3 C33_3 1_555 1_555
O23_3 C33_3 1_555 1_555
O24_3 C34_3 1_555 1_555
O25_3 C34_3 1_555 1_555
Zr9_4 O22_3 1_555 1_555
Zr12_2 O23_3 1_555 1_555
Zr11_4 O24_3 1_555 1_555
Zr12 O25_3 1_555 1_555
C6_3 C7_3 1_555 1_555
C10_3 S2_3 1_555 1_555
C16_3 C19_3 1_555 1_555
C17_3 C18_3 1_555 1_555
C28_3 C31_3 1_555 1_555
C30_3 C32_3 1_555 1_555
O7_2 C1_4 1_555 1_555
C1_4 O18_2 1_555 1_555
C2_4 C1_4 1_555 1_555
C3_4 C2_4 1_555 1_555
C4_4 C2_4 1_555 1_555
H1_4 C3_4 1_555 1_555
C5_4 C3_4 1_555 1_555
C6_4 C4_4 1_555 1_555
H2_4 C4_4 1_555 1_555
H3_4 C5_4 1_555 1_555
C7_4 C5_4 1_555 1_555
H4_4 C6_4 1_555 1_555
C8_4 C7_4 1_555 1_555
S1_4 C8_4 1_555 1_555
C9_4 S1_4 1_555 1_555
C10_4 C8_4 1_555 1_555
C11_4 C10_4 1_555 1_555
S2_4 C9_4 1_555 1_555
C12_4 C9_4 1_555 1_555
C13_4 C11_4 1_555 1_555
C14_4 C11_4 1_555 1_555
S3_4 C12_4 1_555 1_555
S4_4 C12_4 1_555 1_555
C15_4 C13_4 1_555 1_555
H5_4 C13_4 1_555 1_555
H6_4 C14_4 1_555 1_555
C16_4 C14_4 1_555 1_555
C17_4 S3_4 1_555 1_555
C18_4 S4_4 1_555 1_555
C19_4 C15_4 1_555 1_555
H7_4 C15_4 1_555 1_555
H8_4 C16_4 1_555 1_555
C20_4 C17_4 1_555 1_555
C21_4 C18_4 1_555 1_555
C22_4 C19_4 1_555 1_555
C23_4 C20_4 1_555 1_555
C24_4 C20_4 1_555 1_555
C25_4 C21_4 1_555 1_555
C26_4 C21_4 1_555 1_555
O13_2 C22_4 1_555 1_555
O8_2 C22_4 1_555 1_555
C27_4 C23_4 1_555 1_555
H9_4 C23_4 1_555 1_555
H10_4 C24_4 1_555 1_555
C28_4 C24_4 1_555 1_555
C29_4 C25_4 1_555 1_555
H11_4 C25_4 1_555 1_555
H12_4 C26_4 1_555 1_555
C30_4 C26_4 1_555 1_555
C31_4 C27_4 1_555 1_555
H13_4 C27_4 1_555 1_555
H14_4 C28_4 1_555 1_555
C32_4 C29_4 1_555 1_555
H15_4 C29_4 1_555 1_555
H16_4 C30_4 1_555 1_555
C33_4 C31_4 1_555 1_555
C34_4 C32_4 1_555 1_555
O22_4 C33_4 1_555 1_555
O23_4 C33_4 1_555 1_555
O24_4 C34_4 1_555 1_555
O25_4 C34_4 1_555 1_555
Zr11_3 O22_4 1_555 1_555
Zr10 O23_4 1_555 1_555
Zr9_3 O24_4 1_555 1_555
Zr10_2 O25_4 1_555 1_555
C6_4 C7_4 1_555 1_555
C10_4 S2_4 1_555 1_555
C16_4 C19_4 1_555 1_555
C17_4 C18_4 1_555 1_555
C28_4 C31_4 1_555 1_555
C30_4 C32_4 1_555 1_555
O2_2 Zr10 1_555 1_555
O3_3 Zr10 1_555 1_555
Zr11_3 O2_2 1_555 1_555
O5_3 Zr11_3 1_555 1_555
O6_3 Zr11_3 1_555 1_555
O3_3 Zr11_3 1_555 1_555
O3_4 Zr10_2 1_555 1_555
O10_2 Zr10_2 1_555 1_555
Zr9_3 O3_4 1_555 1_555
O15_3 Zr9_3 1_555 1_555
O16_3 Zr9_3 1_555 1_555
O10_2 Zr9_3 1_555 1_555
O5_4 Zr11_4 1_555 1_555
O6_4 Zr11_4 1_555 1_555
O12_3 Zr11_4 1_555 1_555
O14_2 Zr11_4 1_555 1_555
Zr12 O12_3 1_555 1_555
O14_2 Zr12 1_555 1_555
O15_4 Zr9_4 1_555 1_555
O16_4 Zr9_4 1_555 1_555
O17_2 Zr9_4 1_555 1_555
Zr12_2 O12_4 1_555 1_555
Zr9_4 O12_4 1_555 1_555
O17_2 Zr12_2 1_555 1_555
O2_3 Zr10_3 1_555 1_555
O11_5 Zr10_3 1_555 1_555
Zr9 O2_3 1_555 1_555
O11_5 Zr9 1_555 1_555
O10_3 Zr10_4 1_555 1_555
O11_6 Zr10_4 1_555 1_555
Zr11 O10_3 1_555 1_555
O11_6 Zr11 1_555 1_555
Zr9_2 O14_3 1_555 1_555
O14_3 Zr12_3 1_555 1_555
Zr11_2 O17_3 1_555 1_555
O17_3 Zr12_4 1_555 1_555
O11_7 Zr12_3 1_555 1_555
O11_7 Zr9_2 1_555 1_555
O11_8 Zr12_4 1_555 1_555
O11_8 Zr11_2 1_555 1_555
O15_5 Zr9 1_555 1_555
O16_5 Zr9 1_555 1_555
O5_5 Zr11 1_555 1_555
O6_5 Zr11 1_555 1_555
O15_6 Zr9_2 1_555 1_555
O16_6 Zr9_2 1_555 1_555
O5_6 Zr11_2 1_555 1_555
O6_6 Zr11_2 1_555 1_555

#END
