
###############################################################################
#
# This file contains modified crystal structure data generated from the
# MOF subset of the Cambridge Structural Database (CSD) v543 
# hosted by the Cambridge Crystallographic Data Centre (CCDC).
#
# This work is licensed under the Creative Commons
# Attribution-NonCommercial-ShareAlike 4.0 International License.
# To view a copy of this license, visit
# http://creativecommons.org/licenses/by-nc-sa/4.0/
# or send a letter to
# Creative Commons, PO Box 1866, Mountain View, CA 94042, USA.
#
# CIF created using the CSD Python API on 29 September 2022
# The structure has been converted into the P1 space group
# The structure has a 3D framework
# The original CSD entry ZUKSEG is in the monoclinic crystal system
# The framework has been calculated to contain at least 10.0% void space
# The void calculation uses a probe of radius 1.32A, grid spacing 0.4
# H atom positions have been added when not included in the experimental data
#
###############################################################################

data_ZUKSEG
_chemical_formula_moiety         '(C88 H56 N20 O52 Zn16)n'
_symmetry_cell_setting           triclinic
_symmetry_space_group_name_H-M   'P 1'
_symmetry_Int_Tables_number      1
_space_group_name_Hall           'P 1'
loop_
_symmetry_equiv_pos_site_id
_symmetry_equiv_pos_as_xyz
1 x,y,z
_cell_length_a                   22.8941(17)
_cell_length_b                   11.2210(7)
_cell_length_c                   16.7025(11)
_cell_angle_alpha                90
_cell_angle_beta                 127.370(3)
_cell_angle_gamma                90
_cell_volume                     3410.03
loop_
_atom_site_label
_atom_site_type_symbol
_atom_site_fract_x
_atom_site_fract_y
_atom_site_fract_z
Zn1 Zn 0.23548(4) 0.28239(6) 0.08962(5)
O1 O 0.2143(3) 0.1810(4) 0.1720(3)
O2 O 0.1966(3) 0.3326(4) 0.2416(4)
C1 C 0.2095(3) 0.2262(5) 0.2376(5)
C2 C 0.2207(4) 0.1394(5) 0.3119(5)
N1 N 0.2397(3) 0.0271(5) 0.3052(4)
C3 C 0.2294(4) 0.0307(5) 0.4269(5)
C4 C 0.2144(4) 0.1470(5) 0.3897(5)
H1 H 0.2028 0.2145 0.4119
O3 O 0.2233(3) 0.0372(4) 0.5624(4)
O5 O 0.3491(3) 0.2539(4) 0.2139(4)
O6 O 0.3575(3) 0.0619(4) 0.2575(4)
C6 C 0.3839(4) 0.1634(6) 0.2636(5)
C7 C 0.4657(4) 0.1747(6) 0.3378(5)
C8 C 0.5089(5) 0.0815(8) 0.3961(9)
H2 H 0.4872 0.0067 0.3906
C9 C 0.5851(5) 0.0958(8) 0.4641(9)
H3 H 0.6142 0.0292 0.5035
N3 N 0.6187(3) 0.1971(5) 0.4760(4)
C10 C 0.5762(5) 0.2873(8) 0.4200(8)
H4 H 0.5989 0.3618 0.4278
C11 C 0.5006(5) 0.2796(8) 0.3503(8)
H5 H 0.4729 0.3474 0.3113
Zn5 Zn 0.73548(4) 0.21761(6) 0.58962(5)
Zn6 Zn 0.24412(5) 0.49848(7) 0.29909(6)
Zn7 Zn 0.25588(5) 0.00152(7) 0.70091(6)
N4 N 0.2550(3) 0.4599(5) 0.1244(4)
O11 O 0.2415(3) 0.1402(4) 0.0160(3)
O10 O 0.2585(3) 0.3598(4) 0.9840(3)
N5 N 0.1187(3) 0.3029(5) 0.9760(4)
Zn2 Zn 0.25588(5) 0.99848(7) 0.20091(6)
N2 N 0.2450(3) 0.9599(5) 0.3756(4)
C5 C 0.2315(4) 0.9740(5) 0.5076(5)
O4 O 0.2415(3) 0.8598(4) 0.5160(3)
O7 O 0.1397(6) 0.9050(11) 0.1261(8)
Zn3 Zn 0.26452(4) 0.78239(6) 0.41038(5)
Zn4 Zn 0.23548(4) 0.71761(6) 0.58962(5)
O8 O 0.3034(3) 0.8326(4) 0.2584(4)
O9 O 0.2233(3) 0.9628(4) 0.0624(4)
H6 H 0.105122 0.928464 0.0541208
H7 H 0.146008 0.817099 0.131081
Zn1_2 Zn 0.76452(4) 0.28239(6) 0.41038(5)
O1_2 O 0.7857(3) 0.1810(4) 0.3280(3)
O2_2 O 0.8034(3) 0.3326(4) 0.2584(4)
C1_2 C 0.7905(3) 0.2262(5) 0.2624(5)
C2_2 C 0.7793(4) 0.1394(5) 0.1881(5)
N1_2 N 0.7603(3) 0.0271(5) 0.1948(4)
C3_2 C 0.7706(4) 0.0307(5) 0.0731(5)
C4_2 C 0.7856(4) 0.1470(5) 0.1103(5)
H1_2 H 0.7972 0.2145 0.0881
O5_2 O 0.6509(3) 0.2539(4) 0.2861(4)
O6_2 O 0.6425(3) 0.0619(4) 0.2425(4)
C6_2 C 0.6161(4) 0.1634(6) 0.2364(5)
C7_2 C 0.5343(4) 0.1747(6) 0.1622(5)
C8_2 C 0.4911(5) 0.0815(8) 0.1039(9)
H2_2 H 0.5128 0.0067 0.1094
C9_2 C 0.4149(5) 0.0958(8) 0.0359(9)
N3_2 N 0.3813(3) 0.1971(5) 0.0240(4)
C10_2 C 0.4238(5) 0.2873(8) 0.0800(8)
H4_2 H 0.4011 0.3618 0.0722
C11_2 C 0.4994(5) 0.2796(8) 0.1497(8)
H5_2 H 0.5271 0.3474 0.1887
Zn6_2 Zn 0.75588(5) 0.49848(7) 0.20091(6)
N4_2 N 0.7450(3) 0.4599(5) 0.3756(4)
O10_2 O 0.7415(3) 0.3598(4) 0.5160(3)
O11_2 O 0.7585(3) 0.1402(4) 0.4840(3)
N5_2 N 0.8813(3) 0.3029(5) 0.5240(4)
O3_2 O 0.7767(3) 0.0372(4) 0.9376(4)
H3_2 H 0.3858 0.0292 0.9965
Zn5_2 Zn 0.26452(4) 0.21761(6) 0.91038(5)
Zn7_2 Zn 0.74412(5) 0.00152(7) 0.79909(6)
Zn2_2 Zn 0.74412(5) 0.99848(7) 0.29909(6)
N2_2 N 0.7550(3) 0.9599(5) 0.1244(4)
O7_2 O 0.8603(6) 0.9050(11) 0.3739(8)
Zn3_2 Zn 0.73548(4) 0.78239(6) 0.08962(5)
O8_2 O 0.6966(3) 0.8326(4) 0.2416(4)
O9_2 O 0.7767(3) 0.9628(4) 0.4376(4)
H6_2 H 0.894878 0.928464 0.445879
H7_2 H 0.853992 0.817099 0.368919
C5_2 C 0.7685(4) 0.9740(5) 0.9924(5)
O4_2 O 0.7585(3) 0.8598(4) 0.9840(3)
Zn4_2 Zn 0.76452(4) 0.71761(6) 0.91038(5)
C8_3 C 0.0089(5) 0.5815(8) 0.3961(9)
C9_3 C 0.0851(5) 0.5958(8) 0.4641(9)
H3_3 H 0.1142 0.5292 0.5035
N3_3 N 0.1187(3) 0.6971(5) 0.4760(4)
C10_3 C 0.0762(5) 0.7873(8) 0.4200(8)
H4_3 H 0.0989 0.8618 0.4278
C11_3 C 0.0006(5) 0.7796(8) 0.3503(8)
O1_3 O 0.7143(3) 0.6810(4) 0.1720(3)
C1_3 C 0.7095(3) 0.7262(5) 0.2376(5)
C2_3 C 0.7207(4) 0.6394(5) 0.3119(5)
N1_3 N 0.7397(3) 0.5271(5) 0.3052(4)
C3_3 C 0.7294(4) 0.5307(5) 0.4269(5)
C4_3 C 0.7144(4) 0.6470(5) 0.3897(5)
H1_3 H 0.7028 0.7145 0.4119
C5_3 C 0.7315(4) 0.4740(5) 0.5076(5)
O3_3 O 0.7233(3) 0.5372(4) 0.5624(4)
O5_3 O 0.8491(3) 0.7539(4) 0.2139(4)
O6_3 O 0.8575(3) 0.5619(4) 0.2575(4)
C6_3 C 0.8839(4) 0.6634(6) 0.2636(5)
C7_3 C 0.9657(4) 0.6747(6) 0.3378(5)
H2_3 H 0.9872 0.5067 0.3906
H5_3 H 0.9729 0.8474 0.3113
O7_3 O 0.6397(6) 0.4050(11) 0.1261(8)
Zn7_3 Zn 0.75588(5) 0.50152(7) 0.70091(6)
O9_3 O 0.7233(3) 0.4628(4) 0.0624(4)
O11_3 O 0.7415(3) 0.6402(4) 0.0160(3)
H6_3 H 0.605122 0.428464 0.0541208
H7_3 H 0.646008 0.317099 0.131081
N5_3 N 0.6187(3) 0.8029(5) 0.9760(4)
O1_4 O 0.2857(3) 0.6810(4) 0.3280(3)
C1_4 C 0.2905(3) 0.7262(5) 0.2624(5)
C2_4 C 0.2793(4) 0.6394(5) 0.1881(5)
N1_4 N 0.2603(3) 0.5271(5) 0.1948(4)
C3_4 C 0.2706(4) 0.5307(5) 0.0731(5)
C4_4 C 0.2856(4) 0.6470(5) 0.1103(5)
H1_4 H 0.2972 0.7145 0.0881
O5_4 O 0.1509(3) 0.7539(4) 0.2861(4)
O6_4 O 0.1425(3) 0.5619(4) 0.2425(4)
C6_4 C 0.1161(4) 0.6634(6) 0.2364(5)
C7_4 C 0.0343(4) 0.6747(6) 0.1622(5)
H2_4 H 0.0128 0.5067 0.1094
H5_4 H 0.0271 0.8474 0.1887
O7_4 O 0.3603(6) 0.4050(11) 0.3739(8)
O9_4 O 0.2767(3) 0.4628(4) 0.4376(4)
O11_4 O 0.2585(3) 0.6402(4) 0.4840(3)
N5_4 N 0.3813(3) 0.8029(5) 0.5240(4)
H6_4 H 0.394878 0.428464 0.445879
H7_4 H 0.353992 0.317099 0.368919
C5_4 C 0.2685(4) 0.4740(5) 0.9924(5)
O3_4 O 0.2767(3) 0.5372(4) 0.9376(4)
Zn7_4 Zn 0.24412(5) 0.50152(7) 0.79909(6)
C8_4 C 0.9911(5) 0.5815(8) 0.1039(9)
C9_4 C 0.9149(5) 0.5958(8) 0.0359(9)
N3_4 N 0.8813(3) 0.6971(5) 0.0240(4)
C10_4 C 0.9238(5) 0.7873(8) 0.0800(8)
H4_4 H 0.9011 0.8618 0.0722
C11_4 C 0.9994(5) 0.7796(8) 0.1497(8)
H3_4 H 0.8858 0.5292 0.9965
N2_3 N 0.7550(3) 0.0401(5) 0.6244(4)
C5_5 C 0.7685(4) 0.0260(5) 0.4924(5)
O7_5 O 0.8603(6) 0.0950(11) 0.8739(8)
O8_3 O 0.6966(3) 0.1674(4) 0.7416(4)
H6_5 H 0.894878 0.071536 0.945879
H7_5 H 0.853992 0.182901 0.868919
O1_5 O 0.7857(3) 0.8190(4) 0.8280(3)
O2_3 O 0.8034(3) 0.6674(4) 0.7584(4)
C1_5 C 0.7905(3) 0.7738(5) 0.7624(5)
C2_5 C 0.7793(4) 0.8606(5) 0.6881(5)
N1_5 N 0.7603(3) 0.9729(5) 0.6948(4)
C3_5 C 0.7706(4) 0.9693(5) 0.5731(5)
C4_5 C 0.7856(4) 0.8530(5) 0.6103(5)
H1_5 H 0.7972 0.7855 0.5881
O5_5 O 0.6509(3) 0.7461(4) 0.7861(4)
O6_5 O 0.6425(3) 0.9381(4) 0.7425(4)
C6_5 C 0.6161(4) 0.8366(6) 0.7364(5)
C7_5 C 0.5343(4) 0.8253(6) 0.6622(5)
C8_5 C 0.4911(5) 0.9185(8) 0.6039(9)
H2_5 H 0.5128 0.9933 0.6094
C9_5 C 0.4149(5) 0.9042(8) 0.5359(9)
H3_5 H 0.3858 0.9708 0.4965
C10_5 C 0.4238(5) 0.7127(8) 0.5800(8)
H4_5 H 0.4011 0.6382 0.5722
C11_5 C 0.4994(5) 0.7204(8) 0.6497(8)
H5_5 H 0.5271 0.6526 0.6887
N4_3 N 0.7450(3) 0.5401(5) 0.8756(4)
C5_6 C 0.2315(4) 0.0260(5) 0.0076(5)
N2_4 N 0.2450(3) 0.0401(5) 0.8756(4)
O7_6 O 0.1397(6) 0.0950(11) 0.6261(8)
O8_4 O 0.3034(3) 0.1674(4) 0.7584(4)
H6_6 H 0.105122 0.071536 0.554121
H7_6 H 0.146008 0.182901 0.631081
H3_6 H 0.6142 0.9708 0.0035
O1_6 O 0.2143(3) 0.8190(4) 0.6720(3)
O2_4 O 0.1966(3) 0.6674(4) 0.7416(4)
C1_6 C 0.2095(3) 0.7738(5) 0.7376(5)
C2_6 C 0.2207(4) 0.8606(5) 0.8119(5)
N1_6 N 0.2397(3) 0.9729(5) 0.8052(4)
C3_6 C 0.2294(4) 0.9693(5) 0.9269(5)
C4_6 C 0.2144(4) 0.8530(5) 0.8897(5)
H1_6 H 0.2028 0.7855 0.9119
O5_6 O 0.3491(3) 0.7461(4) 0.7139(4)
O6_6 O 0.3575(3) 0.9381(4) 0.7575(4)
C6_6 C 0.3839(4) 0.8366(6) 0.7636(5)
C7_6 C 0.4657(4) 0.8253(6) 0.8378(5)
C8_6 C 0.5089(5) 0.9185(8) 0.8961(9)
H2_6 H 0.4872 0.9933 0.8906
C9_6 C 0.5851(5) 0.9042(8) 0.9641(9)
C10_6 C 0.5762(5) 0.7127(8) 0.9200(8)
H4_6 H 0.5989 0.6382 0.9278
C11_6 C 0.5006(5) 0.7204(8) 0.8503(8)
H5_6 H 0.4729 0.6526 0.8113
N4_4 N 0.2550(3) 0.5401(5) 0.6244(4)
O1_7 O 0.2857(3) 0.3190(4) 0.8280(3)
C1_7 C 0.2905(3) 0.2738(5) 0.7624(5)
C2_7 C 0.2793(4) 0.3606(5) 0.6881(5)
N1_7 N 0.2603(3) 0.4729(5) 0.6948(4)
C3_7 C 0.2706(4) 0.4693(5) 0.5731(5)
C4_7 C 0.2856(4) 0.3530(5) 0.6103(5)
H1_7 H 0.2972 0.2855 0.5881
C5_7 C 0.2685(4) 0.5260(5) 0.4924(5)
O5_7 O 0.1509(3) 0.2461(4) 0.7861(4)
O6_7 O 0.1425(3) 0.4381(4) 0.7425(4)
C6_7 C 0.1161(4) 0.3366(6) 0.7364(5)
C7_7 C 0.0343(4) 0.3253(6) 0.6622(5)
H2_7 H 0.0128 0.4933 0.6094
H5_7 H 0.0271 0.1526 0.6887
O7_7 O 0.3603(6) 0.5950(11) 0.8739(8)
H6_7 H 0.394878 0.571536 0.945879
H7_7 H 0.353992 0.682901 0.868919
C8_7 C 0.9911(5) 0.4185(8) 0.6039(9)
C9_7 C 0.9149(5) 0.4042(8) 0.5359(9)
H3_7 H 0.8858 0.4708 0.4965
C10_7 C 0.9238(5) 0.2127(8) 0.5800(8)
H4_7 H 0.9011 0.1382 0.5722
C11_7 C 0.9994(5) 0.2204(8) 0.6497(8)
H3_8 H 0.1142 0.4708 0.0035
C8_8 C 0.0089(5) 0.4185(8) 0.8961(9)
C9_8 C 0.0851(5) 0.4042(8) 0.9641(9)
C10_8 C 0.0762(5) 0.2127(8) 0.9200(8)
H4_8 H 0.0989 0.1382 0.9278
C11_8 C 0.0006(5) 0.2204(8) 0.8503(8)
C5_8 C 0.7315(4) 0.5260(5) 0.0076(5)
O1_8 O 0.7143(3) 0.3190(4) 0.6720(3)
C1_8 C 0.7095(3) 0.2738(5) 0.7376(5)
C2_8 C 0.7207(4) 0.3606(5) 0.8119(5)
N1_8 N 0.7397(3) 0.4729(5) 0.8052(4)
C3_8 C 0.7294(4) 0.4693(5) 0.9269(5)
C4_8 C 0.7144(4) 0.3530(5) 0.8897(5)
H1_8 H 0.7028 0.2855 0.9119
O5_8 O 0.8491(3) 0.2461(4) 0.7139(4)
O6_8 O 0.8575(3) 0.4381(4) 0.7575(4)
C6_8 C 0.8839(4) 0.3366(6) 0.7636(5)
C7_8 C 0.9657(4) 0.3253(6) 0.8378(5)
H2_8 H 0.9872 0.4933 0.8906
H5_8 H 0.9729 0.1526 0.8113
O7_8 O 0.6397(6) 0.5950(11) 0.6261(8)
H6_8 H 0.605122 0.571536 0.554121
H7_8 H 0.646008 0.682901 0.631081
loop_
_geom_bond_atom_site_label_1
_geom_bond_atom_site_label_2
_geom_bond_site_symmetry_1
_geom_bond_site_symmetry_2
Zn1 O1 1_555 1_555
O1 C1 1_555 1_555
O2 C1 1_555 1_555
C1 C2 1_555 1_555
C2 N1 1_555 1_555
C4 C2 1_555 1_555
H1 C4 1_555 1_555
O5 Zn1 1_555 1_555
C6 O5 1_555 1_555
C7 C6 1_555 1_555
C8 C7 1_555 1_555
H2 C8 1_555 1_555
C9 C8 1_555 1_555
H3 C9 1_555 1_555
N3 C9 1_555 1_555
C10 N3 1_555 1_555
H4 C10 1_555 1_555
C11 C7 1_555 1_555
H5 C11 1_555 1_555
Zn5 N3 1_555 1_555
Zn6 O2 1_555 1_555
Zn7 O3 1_555 1_555
N4 Zn1 1_555 1_555
O11 Zn1 1_555 1_555
C3 C4 1_555 1_555
O6 C6 1_555 1_555
C10 C11 1_555 1_555
O4 C5 1_555 1_555
O7 Zn2 1_555 1_555
Zn3 N2 1_555 1_555
Zn4 O4 1_555 1_555
O8 Zn2 1_555 1_555
O9 Zn2 1_555 1_555
O4 Zn3 1_555 1_555
O7 H6 1_555 1_555
O7 H7 1_555 1_555
Zn1_2 O1_2 1_555 1_555
O1_2 C1_2 1_555 1_555
O2_2 C1_2 1_555 1_555
C1_2 C2_2 1_555 1_555
C2_2 N1_2 1_555 1_555
C4_2 C2_2 1_555 1_555
H1_2 C4_2 1_555 1_555
O5_2 Zn1_2 1_555 1_555
C6_2 O5_2 1_555 1_555
C7_2 C6_2 1_555 1_555
C8_2 C7_2 1_555 1_555
H2_2 C8_2 1_555 1_555
C9_2 C8_2 1_555 1_555
N3_2 C9_2 1_555 1_555
C10_2 N3_2 1_555 1_555
H4_2 C10_2 1_555 1_555
C11_2 C7_2 1_555 1_555
H5_2 C11_2 1_555 1_555
Zn6_2 O2_2 1_555 1_555
N4_2 Zn1_2 1_555 1_555
O10_2 Zn1_2 1_555 1_555
O11_2 Zn1_2 1_555 1_555
N5_2 Zn1_2 1_555 1_555
C3_2 C4_2 1_555 1_555
O6_2 C6_2 1_555 1_555
C10_2 C11_2 1_555 1_555
Zn7_2 O3_2 1_555 1_555
O7_2 Zn2_2 1_555 1_555
Zn3_2 N2_2 1_555 1_555
O8_2 Zn2_2 1_555 1_555
O9_2 Zn2_2 1_555 1_555
O7_2 H6_2 1_555 1_555
O7_2 H7_2 1_555 1_555
O4_2 C5_2 1_555 1_555
Zn4_2 O4_2 1_555 1_555
C9_3 C8_3 1_555 1_555
H3_3 C9_3 1_555 1_555
N3_3 C9_3 1_555 1_555
C10_3 N3_3 1_555 1_555
H4_3 C10_3 1_555 1_555
Zn4 N3_3 1_555 1_555
C10_3 C11_3 1_555 1_555
Zn3_2 O1_3 1_555 1_555
Zn6_2 O1_3 1_555 1_555
O1_3 C1_3 1_555 1_555
O8_2 C1_3 1_555 1_555
C1_3 C2_3 1_555 1_555
C2_3 N1_3 1_555 1_555
N1_3 Zn6_2 1_555 1_555
N4_2 N1_3 1_555 1_555
C3_3 N4_2 1_555 1_555
C4_3 C2_3 1_555 1_555
H1_3 C4_3 1_555 1_555
C5_3 C3_3 1_555 1_555
O3_3 C5_3 1_555 1_555
O10_2 C5_3 1_555 1_555
O5_3 Zn3_2 1_555 1_555
O6_3 Zn6_2 1_555 1_555
C6_3 O5_3 1_555 1_555
C7_3 C6_3 1_555 1_555
O7_3 Zn6_2 1_555 1_555
Zn5 O10_2 1_555 1_555
Zn7_3 O3_3 1_555 1_555
O9_3 Zn6_2 1_555 1_555
O11_3 Zn3_2 1_555 1_555
C3_3 C4_3 1_555 1_555
O6_3 C6_3 1_555 1_555
O7_3 H6_3 1_555 1_555
O7_3 H7_3 1_555 1_555
Zn3 O1_4 1_555 1_555
Zn6 O1_4 1_555 1_555
O1_4 C1_4 1_555 1_555
O8 C1_4 1_555 1_555
C1_4 C2_4 1_555 1_555
C2_4 N1_4 1_555 1_555
N1_4 Zn6 1_555 1_555
N4 N1_4 1_555 1_555
C3_4 N4 1_555 1_555
C4_4 C2_4 1_555 1_555
H1_4 C4_4 1_555 1_555
O5_4 Zn3 1_555 1_555
O6_4 Zn6 1_555 1_555
C6_4 O5_4 1_555 1_555
C7_4 C6_4 1_555 1_555
O7_4 Zn6 1_555 1_555
O9_4 Zn6 1_555 1_555
O11_4 Zn3 1_555 1_555
N5_4 Zn3 1_555 1_555
C3_4 C4_4 1_555 1_555
O6_4 C6_4 1_555 1_555
O7_4 H6_4 1_555 1_555
O7_4 H7_4 1_555 1_555
O3_4 C5_4 1_555 1_555
O10 C5_4 1_555 1_555
Zn5_2 O10 1_555 1_555
Zn7_4 O3_4 1_555 1_555
C9_4 C8_4 1_555 1_555
N3_4 C9_4 1_555 1_555
C10_4 N3_4 1_555 1_555
H4_4 C10_4 1_555 1_555
C10_4 C11_4 1_555 1_555
O11_2 C5_5 1_555 1_555
O7_5 Zn7_2 1_555 1_555
Zn5 N2_3 1_555 1_555
O8_3 Zn7_2 1_555 1_555
O11_2 Zn5 1_555 1_555
O7_5 H6_5 1_555 1_555
O7_5 H7_5 1_555 1_555
Zn4_2 O1_5 1_555 1_555
O1_5 C1_5 1_555 1_555
O2_3 C1_5 1_555 1_555
C1_5 C2_5 1_555 1_555
C2_5 N1_5 1_555 1_555
C4_5 C2_5 1_555 1_555
H1_5 C4_5 1_555 1_555
O5_5 Zn4_2 1_555 1_555
C6_5 O5_5 1_555 1_555
C7_5 C6_5 1_555 1_555
C8_5 C7_5 1_555 1_555
H2_5 C8_5 1_555 1_555
C9_5 C8_5 1_555 1_555
H3_5 C9_5 1_555 1_555
N5_4 C9_5 1_555 1_555
C10_5 N5_4 1_555 1_555
H4_5 C10_5 1_555 1_555
C11_5 C7_5 1_555 1_555
H5_5 C11_5 1_555 1_555
Zn7_3 O2_3 1_555 1_555
N4_3 Zn4_2 1_555 1_555
C3_5 C4_5 1_555 1_555
O6_5 C6_5 1_555 1_555
C10_5 C11_5 1_555 1_555
O11 C5_6 1_555 1_555
O7_6 Zn7 1_555 1_555
Zn5_2 N2_4 1_555 1_555
O8_4 Zn7 1_555 1_555
O7_6 H6_6 1_555 1_555
O7_6 H7_6 1_555 1_555
Zn4 O1_6 1_555 1_555
O1_6 C1_6 1_555 1_555
O2_4 C1_6 1_555 1_555
C1_6 C2_6 1_555 1_555
C2_6 N1_6 1_555 1_555
C4_6 C2_6 1_555 1_555
H1_6 C4_6 1_555 1_555
O5_6 Zn4 1_555 1_555
C6_6 O5_6 1_555 1_555
C7_6 C6_6 1_555 1_555
C8_6 C7_6 1_555 1_555
H2_6 C8_6 1_555 1_555
C9_6 C8_6 1_555 1_555
N5_3 C9_6 1_555 1_555
C10_6 N5_3 1_555 1_555
H4_6 C10_6 1_555 1_555
C11_6 C7_6 1_555 1_555
H5_6 C11_6 1_555 1_555
Zn7_4 O2_4 1_555 1_555
N4_4 Zn4 1_555 1_555
O11_4 Zn4 1_555 1_555
C3_6 C4_6 1_555 1_555
O6_6 C6_6 1_555 1_555
C10_6 C11_6 1_555 1_555
Zn5_2 O1_7 1_555 1_555
Zn7_4 O1_7 1_555 1_555
O1_7 C1_7 1_555 1_555
O8_4 C1_7 1_555 1_555
C1_7 C2_7 1_555 1_555
C2_7 N1_7 1_555 1_555
N1_7 Zn7_4 1_555 1_555
N4_4 N1_7 1_555 1_555
C3_7 N4_4 1_555 1_555
C4_7 C2_7 1_555 1_555
H1_7 C4_7 1_555 1_555
C5_7 C3_7 1_555 1_555
O9_4 C5_7 1_555 1_555
O11_4 C5_7 1_555 1_555
O5_7 Zn5_2 1_555 1_555
O6_7 Zn7_4 1_555 1_555
C6_7 O5_7 1_555 1_555
C7_7 C6_7 1_555 1_555
O7_7 Zn7_4 1_555 1_555
C3_7 C4_7 1_555 1_555
O6_7 C6_7 1_555 1_555
O7_7 H6_7 1_555 1_555
O7_7 H7_7 1_555 1_555
C9_7 C8_7 1_555 1_555
H3_7 C9_7 1_555 1_555
N5_2 C9_7 1_555 1_555
C10_7 N5_2 1_555 1_555
H4_7 C10_7 1_555 1_555
C10_7 C11_7 1_555 1_555
C9_8 C8_8 1_555 1_555
N5 C9_8 1_555 1_555
C10_8 N5 1_555 1_555
H4_8 C10_8 1_555 1_555
C10_8 C11_8 1_555 1_555
O9_3 C5_8 1_555 1_555
O11_3 C5_8 1_555 1_555
Zn5 O1_8 1_555 1_555
Zn7_3 O1_8 1_555 1_555
O1_8 C1_8 1_555 1_555
O8_3 C1_8 1_555 1_555
C1_8 C2_8 1_555 1_555
C2_8 N1_8 1_555 1_555
N1_8 Zn7_3 1_555 1_555
N4_3 N1_8 1_555 1_555
C3_8 N4_3 1_555 1_555
C4_8 C2_8 1_555 1_555
H1_8 C4_8 1_555 1_555
O5_8 Zn5 1_555 1_555
O6_8 Zn7_3 1_555 1_555
C6_8 O5_8 1_555 1_555
C7_8 C6_8 1_555 1_555
O7_8 Zn7_3 1_555 1_555
C3_8 C4_8 1_555 1_555
O6_8 C6_8 1_555 1_555
O7_8 H6_8 1_555 1_555
O7_8 H7_8 1_555 1_555

#END
