
###############################################################################
#
# This file contains modified crystal structure data generated from the
# MOF subset of the Cambridge Structural Database (CSD) v543 
# hosted by the Cambridge Crystallographic Data Centre (CCDC).
#
# This work is licensed under the Creative Commons
# Attribution-NonCommercial-ShareAlike 4.0 International License.
# To view a copy of this license, visit
# http://creativecommons.org/licenses/by-nc-sa/4.0/
# or send a letter to
# Creative Commons, PO Box 1866, Mountain View, CA 94042, USA.
#
# CIF created using the CSD Python API on 29 September 2022
# The structure has been converted into the P1 space group
# The structure has a 3D framework
# The original CSD entry ZUKTUX is in the monoclinic crystal system
# The framework has been calculated to contain at least 10.0% void space
# The void calculation uses a probe of radius 1.32A, grid spacing 0.4
#
###############################################################################

data_ZUKTUX
_chemical_formula_moiety         '(C160 H96 Cl2 Cu12 N32)n'
_symmetry_cell_setting           triclinic
_symmetry_space_group_name_H-M   'P 1'
_symmetry_Int_Tables_number      1
_space_group_name_Hall           'P 1'
loop_
_symmetry_equiv_pos_site_id
_symmetry_equiv_pos_as_xyz
1 x,y,z
_cell_length_a                   8.2443(5)
_cell_length_b                   20.2354(12)
_cell_length_c                   21.6180(10)
_cell_angle_alpha                90
_cell_angle_beta                 91.389(4)
_cell_angle_gamma                90
_cell_volume                     3605.4
loop_
_atom_site_label
_atom_site_type_symbol
_atom_site_fract_x
_atom_site_fract_y
_atom_site_fract_z
Cl1 Cl 0.1677(3) 0.03123(15) 0.56000(13)
Cu5 Cu 0.40410(17) 0.04858(7) 0.51300(5)
Cu2 Cu 0.12265(14) 0.94928(6) 0.62290(5)
N7 N 0.0606(9) 0.8572(4) 0.5999(3)
H13 H 0.057005 0.410967 0.898943
H14 H 0.010850 0.414929 0.793210
C31 C 0.1435(10) 0.8069(4) 0.6248(3)
H17 H 0.236726 0.816038 0.648300
C32 C 0.0978(9) 0.7423(4) 0.6174(3)
H18 H 0.160637 0.709048 0.635436
N11 N 0.1627(8) 0.9662(3) 0.7139(3)
Cu6 Cu 0.09590(17) 0.54858(7) 0.98700(5)
Cu7 Cu 0.90410(17) 0.45142(7) 0.01300(5)
Cu1 Cu 0.76892(10) 0.49705(4) 0.56839(4)
N1 N 0.7360(7) 0.4246(3) 0.6294(2)
N2 N 0.8264(7) 0.5588(3) 0.6379(3)
N3 N 0.8191(7) 0.5673(3) 0.5069(3)
N4 N 0.6941(7) 0.4378(3) 0.4999(3)
N5 N 0.4979(9) 0.1341(3) 0.5416(3)
N6 N 0.8867(8) 0.4723(3) 0.9224(3)
N8 N 0.6627(8) 0.5338(3) 0.2139(3)
C1 C 0.6404(9) 0.3372(4) 0.5594(3)
C2 C 0.6960(9) 0.3592(4) 0.6166(3)
C3 C 0.7077(9) 0.3206(4) 0.6715(3)
H1 H 0.688652 0.275421 0.674572
C4 C 0.7516(10) 0.3614(4) 0.7182(3)
H2 H 0.768449 0.349569 0.759375
C5 C 0.7675(9) 0.4263(4) 0.6928(3)
C6 C 0.7989(9) 0.4841(4) 0.7266(3)
C7 C 0.8188(9) 0.5464(4) 0.7007(3)
C8 C 0.8495(10) 0.6061(4) 0.7340(4)
H3 H 0.849145 0.611096 0.776738
C9 C 0.8787(10) 0.6534(4) 0.6931(3)
H4 H 0.902110 0.697389 0.701987
C10 C 0.8677(9) 0.6243(4) 0.6328(3)
C11 C 0.9013(9) 0.6568(4) 0.5779(3)
C12 C 0.8840(9) 0.6289(4) 0.5192(3)
C13 C 0.9284(9) 0.6601(4) 0.4624(4)
H5 H 0.977213 0.701252 0.458504
C14 C 0.8863(10) 0.6187(4) 0.4158(3)
H6 H 0.902630 0.625620 0.373874
C15 C 0.8109(9) 0.5614(4) 0.4433(3)
C16 C 0.7355(9) 0.5107(4) 0.4100(3)
C17 C 0.6744(9) 0.4542(4) 0.4378(3)
C18 C 0.5861(9) 0.4019(4) 0.4068(3)
H7 H 0.552109 0.401870 0.365487
C19 C 0.5614(10) 0.3532(4) 0.4478(4)
H8 H 0.508799 0.313285 0.440106
C20 C 0.6320(9) 0.3748(4) 0.5060(3)
C21 C 0.6333(11) 0.1569(5) 0.5170(4)
H9 H 0.696696 0.128006 0.494526
C22 C 0.6830(10) 0.2206(4) 0.5234(4)
H10 H 0.780812 0.233751 0.506665
C23 C 0.5895(10) 0.2663(4) 0.5544(3)
C24 C 0.4509(10) 0.2414(4) 0.5822(4)
H11 H 0.386756 0.268780 0.605983
C25 C 0.4102(11) 0.1764(5) 0.5740(4)
H12 H 0.316235 0.160961 0.592022
C26 C 0.9739(10) 0.4376(4) 0.8832(3)
C27 C 0.9463(9) 0.4395(4) 0.8193(3)
C28 C 0.8216(9) 0.4784(4) 0.7951(3)
C29 C 0.7263(9) 0.5121(4) 0.8376(3)
H15 H 0.638385 0.537241 0.823714
C30 C 0.7627(10) 0.5079(4) 0.8996(4)
H16 H 0.698234 0.530834 0.927045
C33 C 0.9594(9) 0.7259(4) 0.5834(3)
C34 C 0.8755(11) 0.7793(4) 0.5558(4)
H19 H 0.783328 0.771626 0.531151
C35 C 0.9303(11) 0.8427(4) 0.5652(4)
H20 H 0.873258 0.877192 0.546364
C36 C 0.6198(9) 0.5809(4) 0.2541(3)
H21 H 0.572829 0.619447 0.238615
C37 C 0.6423(9) 0.5745(4) 0.3174(3)
H22 H 0.608687 0.608091 0.343525
C38 C 0.7155(9) 0.5177(4) 0.3421(3)
C39 C 0.7622(10) 0.4691(4) 0.2997(3)
H23 H 0.813245 0.430585 0.313187
C40 C 0.7307(10) 0.4798(4) 0.2378(3)
H24 H 0.759326 0.446586 0.210418
Cu4 Cu 0.62265(14) 0.55072(6) 0.12290(5)
N10 N 0.3867(8) 0.0277(3) 0.4224(3)
N9 N 0.6133(8) 0.9723(3) 0.5776(3)
N10_2 N 0.1133(8) 0.5277(3) 0.0776(3)
N5_2 N 0.0021(9) 0.6341(3) 0.9584(3)
C24_2 C 0.0491(10) 0.7414(4) 0.9178(4)
H11_2 H 0.113244 0.768780 0.894017
C25_2 C 0.0898(11) 0.6764(5) 0.9260(4)
H12_2 H 0.183765 0.660961 0.907978
Cl2 Cl 0.3323(3) 0.53123(15) 0.94000(13)
N8_2 N 0.8373(8) 0.0338(3) 0.2861(3)
C13_2 C 0.5716(9) 0.1601(4) 0.0376(4)
H5_2 H 0.522787 0.201252 0.041496
C14_2 C 0.6137(10) 0.1187(4) 0.0842(3)
H6_2 H 0.597370 0.125620 0.126126
C15_2 C 0.6891(9) 0.0614(4) 0.0567(3)
C16_2 C 0.7645(9) 0.0107(4) 0.0900(3)
C36_2 C 0.8802(9) 0.0809(4) 0.2459(3)
H21_2 H 0.927171 0.119447 0.261385
C37_2 C 0.8577(9) 0.0745(4) 0.1826(3)
H22_2 H 0.891313 0.108091 0.156475
C38_2 C 0.7845(9) 0.0177(4) 0.1579(3)
Cu4_2 Cu 0.87735(14) 0.05072(6) 0.37710(5)
Cu2_2 Cu 0.37735(14) 0.44928(6) 0.87710(5)
N2_2 N 0.6736(7) 0.0588(3) 0.8621(3)
N3_2 N 0.6809(7) 0.0673(3) 0.9931(3)
N7_2 N 0.4394(9) 0.3572(4) 0.9001(3)
C7_2 C 0.6812(9) 0.0464(4) 0.7993(3)
C8_2 C 0.6505(10) 0.1061(4) 0.7660(4)
H3_2 H 0.650855 0.111096 0.723262
C9_2 C 0.6213(10) 0.1534(4) 0.8069(3)
H4_2 H 0.597890 0.197389 0.798013
C10_2 C 0.6323(9) 0.1243(4) 0.8672(3)
C11_2 C 0.5987(9) 0.1568(4) 0.9221(3)
C12_2 C 0.6160(9) 0.1289(4) 0.9808(3)
C29_2 C 0.7737(9) 0.0121(4) 0.6624(3)
H15_2 H 0.861615 0.037241 0.676286
C30_2 C 0.7373(10) 0.0079(4) 0.6004(4)
H16_2 H 0.801766 0.030834 0.572955
C31_2 C 0.3565(10) 0.3069(4) 0.8752(3)
H17_2 H 0.263274 0.316038 0.851700
C32_2 C 0.4022(9) 0.2423(4) 0.8826(3)
H18_2 H 0.339363 0.209048 0.864564
C33_2 C 0.5406(9) 0.2259(4) 0.9166(3)
C34_2 C 0.6245(11) 0.2793(4) 0.9442(4)
H19_2 H 0.716672 0.271626 0.968849
C35_2 C 0.5697(11) 0.3427(4) 0.9348(4)
H20_2 H 0.626742 0.377192 0.953636
N11_2 N 0.3373(8) 0.4662(3) 0.7861(3)
Cu1_2 Cu 0.73108(10) 0.99705(4) 0.93161(4)
N1_2 N 0.7640(7) 0.9246(3) 0.8706(2)
C1_2 C 0.8596(9) 0.8372(4) 0.9406(3)
C2_2 C 0.8040(9) 0.8592(4) 0.8834(3)
C3_2 C 0.7923(9) 0.8206(4) 0.8285(3)
H1_2 H 0.811348 0.775421 0.825428
C4_2 C 0.7484(10) 0.8614(4) 0.7818(3)
H2_2 H 0.731551 0.849569 0.740625
C5_2 C 0.7325(9) 0.9263(4) 0.8072(3)
C6_2 C 0.7011(9) 0.9841(4) 0.7734(3)
C20_2 C 0.8680(9) 0.8748(4) 0.9940(3)
C21_2 C 0.8667(11) 0.6569(5) 0.9830(4)
C22_2 C 0.8170(10) 0.7206(4) 0.9766(4)
H10_2 H 0.719188 0.733751 0.993335
C23_2 C 0.9105(10) 0.7663(4) 0.9456(3)
C26_2 C 0.5261(10) 0.9376(4) 0.6168(3)
H13_2 H 0.442995 0.910967 0.601057
C27_2 C 0.5537(9) 0.9395(4) 0.6807(3)
H14_2 H 0.489150 0.914929 0.706790
C28_2 C 0.6784(9) 0.9784(4) 0.7049(3)
Cu7_2 Cu 0.59590(17) 0.95142(7) 0.48700(5)
Cu1_3 Cu 0.23108(10) 0.50295(4) 0.43161(4)
N1_3 N 0.2640(7) 0.5754(3) 0.3706(2)
N2_3 N 0.1736(7) 0.4412(3) 0.3621(3)
N3_3 N 0.1809(7) 0.4327(3) 0.4931(3)
N4_2 N 0.3059(7) 0.5622(3) 0.5001(3)
N5_3 N 0.5021(9) 0.8659(3) 0.4584(3)
C1_3 C 0.3596(9) 0.6628(4) 0.4406(3)
C2_3 C 0.3040(9) 0.6408(4) 0.3834(3)
C3_3 C 0.2923(9) 0.6794(4) 0.3285(3)
H1_3 H 0.311348 0.724579 0.325428
C4_3 C 0.2484(10) 0.6386(4) 0.2818(3)
H2_3 H 0.231551 0.650431 0.240625
C5_3 C 0.2325(9) 0.5737(4) 0.3072(3)
C6_3 C 0.2011(9) 0.5159(4) 0.2734(3)
C7_3 C 0.1812(9) 0.4536(4) 0.2993(3)
C8_3 C 0.1505(10) 0.3939(4) 0.2660(4)
H3_3 H 0.150855 0.388904 0.223262
C9_3 C 0.1213(10) 0.3466(4) 0.3069(3)
H4_3 H 0.097890 0.302611 0.298013
C10_3 C 0.1323(9) 0.3757(4) 0.3672(3)
C11_3 C 0.0987(9) 0.3432(4) 0.4221(3)
C12_3 C 0.1160(9) 0.3711(4) 0.4808(3)
C13_3 C 0.0716(9) 0.3399(4) 0.5376(4)
H5_3 H 0.022787 0.298748 0.541496
C14_3 C 0.1137(10) 0.3813(4) 0.5842(3)
H6_3 H 0.097370 0.374380 0.626126
C15_3 C 0.1891(9) 0.4386(4) 0.5567(3)
C16_3 C 0.2645(9) 0.4893(4) 0.5900(3)
C17_2 C 0.3256(9) 0.5458(4) 0.5622(3)
C18_2 C 0.4139(9) 0.5981(4) 0.5932(3)
H7_2 H 0.447891 0.598130 0.634513
C19_2 C 0.4386(10) 0.6468(4) 0.5522(4)
H8_2 H 0.491201 0.686715 0.559894
C20_3 C 0.3680(9) 0.6252(4) 0.4940(3)
C21_3 C 0.3667(11) 0.8431(5) 0.4830(4)
H9_2 H 0.303304 0.871994 0.505474
C22_3 C 0.3170(10) 0.7794(4) 0.4766(4)
H10_3 H 0.219188 0.766249 0.493335
C23_3 C 0.4105(10) 0.7337(4) 0.4456(3)
C24_3 C 0.5491(10) 0.7586(4) 0.4178(4)
H11_3 H 0.613244 0.731220 0.394017
C25_3 C 0.5898(11) 0.8236(5) 0.4260(4)
H12_3 H 0.683765 0.839039 0.407978
C26_3 C 0.0261(10) 0.5624(4) 0.1168(3)
C27_3 C 0.0537(9) 0.5605(4) 0.1807(3)
C28_3 C 0.1784(9) 0.5216(4) 0.2049(3)
C29_3 C 0.2737(9) 0.4879(4) 0.1624(3)
H15_3 H 0.361615 0.462759 0.176286
C30_3 C 0.2373(10) 0.4921(4) 0.1004(4)
H16_3 H 0.301766 0.469166 0.072955
C33_3 C 0.0406(9) 0.2741(4) 0.4166(3)
C34_3 C 0.1245(11) 0.2207(4) 0.4442(4)
H19_3 H 0.216672 0.228374 0.468849
C35_3 C 0.0697(11) 0.1573(4) 0.4348(4)
H20_3 H 0.126742 0.122808 0.453636
C36_3 C 0.3802(9) 0.4191(4) 0.7459(3)
H21_3 H 0.427171 0.380553 0.761385
C37_3 C 0.3577(9) 0.4255(4) 0.6826(3)
H22_3 H 0.391313 0.391909 0.656475
C38_3 C 0.2845(9) 0.4823(4) 0.6579(3)
C39_2 C 0.2378(10) 0.5309(4) 0.7003(3)
H23_2 H 0.186755 0.569415 0.686813
C40_2 C 0.2693(10) 0.5202(4) 0.7622(3)
H24_2 H 0.240674 0.553414 0.789582
Cl2_2 Cl 0.8323(3) 0.96877(15) 0.44000(13)
N7_3 N 0.9394(9) 0.1428(4) 0.4001(3)
H13_3 H 0.942995 0.589033 0.101057
H14_3 H 0.989150 0.585071 0.206790
C31_3 C 0.8565(10) 0.1931(4) 0.3752(3)
H17_3 H 0.763274 0.183962 0.351700
C32_3 C 0.9022(9) 0.2577(4) 0.3826(3)
H18_3 H 0.839363 0.290952 0.364564
Cu1_4 Cu 0.26892(10) 0.00295(4) 0.06839(4)
N1_4 N 0.2360(7) 0.0754(3) 0.1294(2)
C1_4 C 0.1404(9) 0.1628(4) 0.0594(3)
C2_4 C 0.1960(9) 0.1408(4) 0.1166(3)
C3_4 C 0.2077(9) 0.1794(4) 0.1715(3)
H1_4 H 0.188652 0.224579 0.174572
C4_4 C 0.2516(10) 0.1386(4) 0.2182(3)
H2_4 H 0.268449 0.150431 0.259375
C5_4 C 0.2675(9) 0.0737(4) 0.1928(3)
C6_4 C 0.2989(9) 0.0159(4) 0.2266(3)
C20_4 C 0.1320(9) 0.1252(4) 0.0060(3)
C21_4 C 0.1333(11) 0.3431(5) 0.0170(4)
C22_4 C 0.1830(10) 0.2794(4) 0.0234(4)
H10_4 H 0.280812 0.266249 0.006665
C23_4 C 0.0895(10) 0.2337(4) 0.0544(3)
C26_4 C 0.4739(10) 0.0624(4) 0.3832(3)
H13_4 H 0.557005 0.089033 0.398943
C27_4 C 0.4463(9) 0.0605(4) 0.3193(3)
H14_4 H 0.510850 0.085071 0.293210
C28_4 C 0.3216(9) 0.0216(4) 0.2951(3)
Cl1_2 Cl 0.6677(3) 0.46877(15) 0.06000(13)
N2_4 N 0.3264(7) 0.9412(3) 0.1379(3)
N3_4 N 0.3191(7) 0.9327(3) 0.0069(3)
N7_4 N 0.5606(9) 0.6428(4) 0.0999(3)
C7_4 C 0.3188(9) 0.9536(4) 0.2007(3)
C8_4 C 0.3495(10) 0.8939(4) 0.2340(4)
H3_4 H 0.349145 0.888904 0.276738
C9_4 C 0.3787(10) 0.8466(4) 0.1931(3)
H4_4 H 0.402110 0.802611 0.201987
C10_4 C 0.3677(9) 0.8757(4) 0.1328(3)
C11_4 C 0.4013(9) 0.8432(4) 0.0779(3)
C12_4 C 0.3840(9) 0.8711(4) 0.0192(3)
C29_4 C 0.2263(9) 0.9879(4) 0.3376(3)
H15_4 H 0.138385 0.962759 0.323714
C30_4 C 0.2627(10) 0.9921(4) 0.3996(4)
H16_4 H 0.198234 0.969166 0.427045
C31_4 C 0.6435(10) 0.6931(4) 0.1248(3)
H17_4 H 0.736726 0.683962 0.148300
C32_4 C 0.5978(9) 0.7577(4) 0.1174(3)
H18_4 H 0.660637 0.790952 0.135436
C33_4 C 0.4594(9) 0.7741(4) 0.0834(3)
C34_4 C 0.3755(11) 0.7207(4) 0.0558(4)
H19_4 H 0.283328 0.728374 0.031151
C35_4 C 0.4303(11) 0.6573(4) 0.0652(4)
H20_4 H 0.373258 0.622808 0.046364
C13_4 C 0.4284(9) 0.8399(4) 0.9624(4)
H5_4 H 0.477213 0.798748 0.958504
C14_4 C 0.3863(10) 0.8813(4) 0.9158(3)
H6_4 H 0.402630 0.874380 0.873874
C15_4 C 0.3109(9) 0.9386(4) 0.9433(3)
C16_4 C 0.2355(9) 0.9893(4) 0.9100(3)
C36_4 C 0.1198(9) 0.9191(4) 0.7541(3)
H21_4 H 0.072829 0.880553 0.738615
C37_4 C 0.1423(9) 0.9255(4) 0.8174(3)
H22_4 H 0.108687 0.891909 0.843525
C38_4 C 0.2155(9) 0.9823(4) 0.8421(3)
N5_4 N 0.9979(9) 0.3659(3) 0.0416(3)
C24_4 C 0.9509(10) 0.2586(4) 0.0822(4)
H11_4 H 0.886756 0.231220 0.105983
C25_4 C 0.9102(11) 0.3236(5) 0.0740(4)
H12_4 H 0.816235 0.339039 0.092022
N4_3 N 0.8059(7) 0.9378(3) 0.0001(3)
C17_3 C 0.8256(9) 0.9542(4) 0.0622(3)
C18_3 C 0.9139(9) 0.9019(4) 0.0932(3)
H7_3 H 0.947891 0.901870 0.134513
C19_3 C 0.9386(10) 0.8532(4) 0.0522(4)
H8_3 H 0.991201 0.813285 0.059894
H9_3 H 0.803304 0.628006 0.005474
C39_3 C 0.7378(10) 0.9691(4) 0.2003(3)
H23_3 H 0.686755 0.930585 0.186813
C40_3 C 0.7693(10) 0.9798(4) 0.2622(3)
H24_3 H 0.740674 0.946586 0.289582
N4_4 N 0.1941(7) 0.0622(3) 0.9999(3)
C17_4 C 0.1744(9) 0.0458(4) 0.9378(3)
C18_4 C 0.0861(9) 0.0981(4) 0.9068(3)
H7_4 H 0.052109 0.098130 0.865487
C19_4 C 0.0614(10) 0.1468(4) 0.9478(4)
H8_4 H 0.008799 0.186715 0.940106
H9_4 H 0.196696 0.371994 0.994526
C39_4 C 0.2622(10) 0.0309(4) 0.7997(3)
H23_4 H 0.313245 0.069415 0.813187
C40_4 C 0.2307(10) 0.0202(4) 0.7378(3)
H24_4 H 0.259326 0.053414 0.710418
loop_
_geom_bond_atom_site_label_1
_geom_bond_atom_site_label_2
_geom_bond_site_symmetry_1
_geom_bond_site_symmetry_2
Cl1 Cu5 1_555 1_555
N7 Cu2 1_555 1_555
C31 N7 1_555 1_555
H17 C31 1_555 1_555
C32 C31 1_555 1_555
H18 C32 1_555 1_555
N11 Cu2 1_555 1_555
Cu1 N1 1_555 1_555
N1 C2 1_555 1_555
N2 Cu1 1_555 1_555
N3 Cu1 1_555 1_555
N4 Cu1 1_555 1_555
N5 C21 1_555 1_555
N6 C26 1_555 1_555
N8 C36 1_555 1_555
C1 C2 1_555 1_555
C2 C3 1_555 1_555
C3 H1 1_555 1_555
C4 C3 1_555 1_555
H2 C4 1_555 1_555
C5 N1 1_555 1_555
C6 C5 1_555 1_555
C7 N2 1_555 1_555
C8 C7 1_555 1_555
H3 C8 1_555 1_555
C9 C8 1_555 1_555
H4 C9 1_555 1_555
C10 N2 1_555 1_555
C11 C10 1_555 1_555
C12 N3 1_555 1_555
C13 C12 1_555 1_555
H5 C13 1_555 1_555
C14 C13 1_555 1_555
H6 C14 1_555 1_555
C15 N3 1_555 1_555
C16 C15 1_555 1_555
C17 N4 1_555 1_555
C18 C17 1_555 1_555
H7 C18 1_555 1_555
C19 C18 1_555 1_555
H8 C19 1_555 1_555
C20 N4 1_555 1_555
C21 H9 1_555 1_555
C22 C21 1_555 1_555
H10 C22 1_555 1_555
C23 C1 1_555 1_555
C24 C23 1_555 1_555
H11 C24 1_555 1_555
C25 N5 1_555 1_555
H12 C25 1_555 1_555
C27 C26 1_555 1_555
C28 C6 1_555 1_555
C29 C28 1_555 1_555
H15 C29 1_555 1_555
C30 N6 1_555 1_555
H16 C30 1_555 1_555
C33 C11 1_555 1_555
C34 C33 1_555 1_555
H19 C34 1_555 1_555
H20 C35 1_555 1_555
C36 H21 1_555 1_555
C37 C36 1_555 1_555
H22 C37 1_555 1_555
C38 C16 1_555 1_555
C39 C38 1_555 1_555
H23 C39 1_555 1_555
C40 N8 1_555 1_555
H24 C40 1_555 1_555
Cu5 N5 1_555 1_555
Cu4 N8 1_555 1_555
N10 Cu5 1_555 1_555
C1 C20 1_555 1_555
C4 C5 1_555 1_555
C6 C7 1_555 1_555
C9 C10 1_555 1_555
C11 C12 1_555 1_555
C14 C15 1_555 1_555
C16 C17 1_555 1_555
C19 C20 1_555 1_555
C22 C23 1_555 1_555
C24 C25 1_555 1_555
C27 C28 1_555 1_555
C29 C30 1_555 1_555
C34 C35 1_555 1_555
C37 C38 1_555 1_555
C39 C40 1_555 1_555
H11_2 C24_2 1_555 1_555
C25_2 N5_2 1_555 1_555
H12_2 C25_2 1_555 1_555
Cu6 N5_2 1_555 1_555
Cl2 Cu6 1_555 1_555
C24_2 C25_2 1_555 1_555
N8_2 C36_2 1_555 1_555
H5_2 C13_2 1_555 1_555
C14_2 C13_2 1_555 1_555
H6_2 C14_2 1_555 1_555
C16_2 C15_2 1_555 1_555
C36_2 H21_2 1_555 1_555
C37_2 C36_2 1_555 1_555
H22_2 C37_2 1_555 1_555
C38_2 C16_2 1_555 1_555
Cu4_2 N8_2 1_555 1_555
C14_2 C15_2 1_555 1_555
C37_2 C38_2 1_555 1_555
Cu2_2 Cl2 1_555 1_555
N7_2 Cu2_2 1_555 1_555
C7_2 N2_2 1_555 1_555
C8_2 C7_2 1_555 1_555
H3_2 C8_2 1_555 1_555
C9_2 C8_2 1_555 1_555
H4_2 C9_2 1_555 1_555
C10_2 N2_2 1_555 1_555
C11_2 C10_2 1_555 1_555
C12_2 N3_2 1_555 1_555
H15_2 C29_2 1_555 1_555
H16_2 C30_2 1_555 1_555
C31_2 N7_2 1_555 1_555
H17_2 C31_2 1_555 1_555
C32_2 C31_2 1_555 1_555
H18_2 C32_2 1_555 1_555
C33_2 C11_2 1_555 1_555
C34_2 C33_2 1_555 1_555
H19_2 C34_2 1_555 1_555
C35_2 N7_2 1_555 1_555
H20_2 C35_2 1_555 1_555
N11_2 Cu2_2 1_555 1_555
C9_2 C10_2 1_555 1_555
C11_2 C12_2 1_555 1_555
C29_2 C30_2 1_555 1_555
C32_2 C33_2 1_555 1_555
C34_2 C35_2 1_555 1_555
Cu1_2 N1_2 1_555 1_555
N1_2 C2_2 1_555 1_555
N9 C26_2 1_555 1_555
C1_2 C2_2 1_555 1_555
C2_2 C3_2 1_555 1_555
C3_2 H1_2 1_555 1_555
C4_2 C3_2 1_555 1_555
H2_2 C4_2 1_555 1_555
C5_2 N1_2 1_555 1_555
C6_2 C5_2 1_555 1_555
C22_2 C21_2 1_555 1_555
H10_2 C22_2 1_555 1_555
C23_2 C1_2 1_555 1_555
C26_2 H13_2 1_555 1_555
C27_2 C26_2 1_555 1_555
H14_2 C27_2 1_555 1_555
C28_2 C6_2 1_555 1_555
Cu7_2 N9 1_555 1_555
C1_2 C20_2 1_555 1_555
C4_2 C5_2 1_555 1_555
C22_2 C23_2 1_555 1_555
C27_2 C28_2 1_555 1_555
Cu1_3 N1_3 1_555 1_555
N1_3 C2_3 1_555 1_555
N2_3 Cu1_3 1_555 1_555
N3_3 Cu1_3 1_555 1_555
N4_2 Cu1_3 1_555 1_555
N5_3 C21_3 1_555 1_555
N10_2 C26_3 1_555 1_555
N11_2 C36_3 1_555 1_555
C1_3 C2_3 1_555 1_555
C2_3 C3_3 1_555 1_555
C3_3 H1_3 1_555 1_555
C4_3 C3_3 1_555 1_555
H2_3 C4_3 1_555 1_555
C5_3 N1_3 1_555 1_555
C6_3 C5_3 1_555 1_555
C7_3 N2_3 1_555 1_555
C8_3 C7_3 1_555 1_555
H3_3 C8_3 1_555 1_555
C9_3 C8_3 1_555 1_555
H4_3 C9_3 1_555 1_555
C10_3 N2_3 1_555 1_555
C11_3 C10_3 1_555 1_555
C12_3 N3_3 1_555 1_555
C13_3 C12_3 1_555 1_555
H5_3 C13_3 1_555 1_555
C14_3 C13_3 1_555 1_555
H6_3 C14_3 1_555 1_555
C15_3 N3_3 1_555 1_555
C16_3 C15_3 1_555 1_555
C17_2 N4_2 1_555 1_555
C18_2 C17_2 1_555 1_555
H7_2 C18_2 1_555 1_555
C19_2 C18_2 1_555 1_555
H8_2 C19_2 1_555 1_555
C20_3 N4_2 1_555 1_555
C21_3 H9_2 1_555 1_555
C22_3 C21_3 1_555 1_555
H10_3 C22_3 1_555 1_555
C23_3 C1_3 1_555 1_555
C24_3 C23_3 1_555 1_555
H11_3 C24_3 1_555 1_555
C25_3 N5_3 1_555 1_555
H12_3 C25_3 1_555 1_555
C27_3 C26_3 1_555 1_555
C28_3 C6_3 1_555 1_555
C29_3 C28_3 1_555 1_555
H15_3 C29_3 1_555 1_555
C30_3 N10_2 1_555 1_555
H16_3 C30_3 1_555 1_555
C33_3 C11_3 1_555 1_555
C34_3 C33_3 1_555 1_555
H19_3 C34_3 1_555 1_555
H20_3 C35_3 1_555 1_555
C36_3 H21_3 1_555 1_555
C37_3 C36_3 1_555 1_555
H22_3 C37_3 1_555 1_555
C38_3 C16_3 1_555 1_555
C39_2 C38_3 1_555 1_555
H23_2 C39_2 1_555 1_555
C40_2 N11_2 1_555 1_555
H24_2 C40_2 1_555 1_555
Cu7_2 N5_3 1_555 1_555
Cl2_2 Cu7_2 1_555 1_555
C1_3 C20_3 1_555 1_555
C4_3 C5_3 1_555 1_555
C6_3 C7_3 1_555 1_555
C9_3 C10_3 1_555 1_555
C11_3 C12_3 1_555 1_555
C14_3 C15_3 1_555 1_555
C16_3 C17_2 1_555 1_555
C19_2 C20_3 1_555 1_555
C22_3 C23_3 1_555 1_555
C24_3 C25_3 1_555 1_555
C27_3 C28_3 1_555 1_555
C29_3 C30_3 1_555 1_555
C34_3 C35_3 1_555 1_555
C37_3 C38_3 1_555 1_555
C39_2 C40_2 1_555 1_555
N7_3 Cu4_2 1_555 1_555
C31_3 N7_3 1_555 1_555
H17_3 C31_3 1_555 1_555
C32_3 C31_3 1_555 1_555
H18_3 C32_3 1_555 1_555
Cu1_4 N1_4 1_555 1_555
N1_4 C2_4 1_555 1_555
N10 C26_4 1_555 1_555
C1_4 C2_4 1_555 1_555
C2_4 C3_4 1_555 1_555
C3_4 H1_4 1_555 1_555
C4_4 C3_4 1_555 1_555
H2_4 C4_4 1_555 1_555
C5_4 N1_4 1_555 1_555
C6_4 C5_4 1_555 1_555
C22_4 C21_4 1_555 1_555
H10_4 C22_4 1_555 1_555
C23_4 C1_4 1_555 1_555
C26_4 H13_4 1_555 1_555
C27_4 C26_4 1_555 1_555
H14_4 C27_4 1_555 1_555
C28_4 C6_4 1_555 1_555
C1_4 C20_4 1_555 1_555
C4_4 C5_4 1_555 1_555
C22_4 C23_4 1_555 1_555
C27_4 C28_4 1_555 1_555
Cu4 Cl1_2 1_555 1_555
Cl1_2 Cu7 1_555 1_555
N7_4 Cu4 1_555 1_555
C7_4 N2_4 1_555 1_555
C8_4 C7_4 1_555 1_555
H3_4 C8_4 1_555 1_555
C9_4 C8_4 1_555 1_555
H4_4 C9_4 1_555 1_555
C10_4 N2_4 1_555 1_555
C11_4 C10_4 1_555 1_555
C12_4 N3_4 1_555 1_555
H15_4 C29_4 1_555 1_555
H16_4 C30_4 1_555 1_555
C31_4 N7_4 1_555 1_555
H17_4 C31_4 1_555 1_555
C32_4 C31_4 1_555 1_555
H18_4 C32_4 1_555 1_555
C33_4 C11_4 1_555 1_555
C34_4 C33_4 1_555 1_555
H19_4 C34_4 1_555 1_555
C35_4 N7_4 1_555 1_555
H20_4 C35_4 1_555 1_555
C9_4 C10_4 1_555 1_555
C11_4 C12_4 1_555 1_555
C29_4 C30_4 1_555 1_555
C32_4 C33_4 1_555 1_555
C34_4 C35_4 1_555 1_555
N11 C36_4 1_555 1_555
H5_4 C13_4 1_555 1_555
C14_4 C13_4 1_555 1_555
H6_4 C14_4 1_555 1_555
C16_4 C15_4 1_555 1_555
C36_4 H21_4 1_555 1_555
C37_4 C36_4 1_555 1_555
H22_4 C37_4 1_555 1_555
C38_4 C16_4 1_555 1_555
C14_4 C15_4 1_555 1_555
C37_4 C38_4 1_555 1_555
H11_4 C24_4 1_555 1_555
C25_4 N5_4 1_555 1_555
H12_4 C25_4 1_555 1_555
Cu7 N5_4 1_555 1_555
C24_4 C25_4 1_555 1_555
C17_3 N4_3 1_555 1_555
C18_3 C17_3 1_555 1_555
H7_3 C18_3 1_555 1_555
C19_3 C18_3 1_555 1_555
H8_3 C19_3 1_555 1_555
H23_3 C39_3 1_555 1_555
H24_3 C40_3 1_555 1_555
C39_3 C40_3 1_555 1_555
C17_4 N4_4 1_555 1_555
C18_4 C17_4 1_555 1_555
H7_4 C18_4 1_555 1_555
C19_4 C18_4 1_555 1_555
H8_4 C19_4 1_555 1_555
H23_4 C39_4 1_555 1_555
H24_4 C40_4 1_555 1_555
C39_4 C40_4 1_555 1_555

#END
