
###############################################################################
#
# This file contains modified crystal structure data generated from the
# MOF subset of the Cambridge Structural Database (CSD) v543 
# hosted by the Cambridge Crystallographic Data Centre (CCDC).
#
# This work is licensed under the Creative Commons
# Attribution-NonCommercial-ShareAlike 4.0 International License.
# To view a copy of this license, visit
# http://creativecommons.org/licenses/by-nc-sa/4.0/
# or send a letter to
# Creative Commons, PO Box 1866, Mountain View, CA 94042, USA.
#
# CIF created using the CSD Python API on 29 September 2022
# The structure has been converted into the P1 space group
# The structure has a 3D framework
# The original CSD entry ZUMZAL is in the triclinic crystal system
# The framework has been calculated to contain at least 10.0% void space
# The void calculation uses a probe of radius 1.32A, grid spacing 0.4
#
###############################################################################

data_ZUMZAL
_chemical_formula_moiety         '(C88 H60 O24 Sr4)n'
_symmetry_cell_setting           triclinic
_symmetry_space_group_name_H-M   'P 1'
_symmetry_Int_Tables_number      1
_space_group_name_Hall           'P 1'
loop_
_symmetry_equiv_pos_site_id
_symmetry_equiv_pos_as_xyz
1 x,y,z
_cell_length_a                   13.6683(10)
_cell_length_b                   14.8651(10)
_cell_length_c                   16.7855(12)
_cell_angle_alpha                83.252(6)
_cell_angle_beta                 78.278(6)
_cell_angle_gamma                89.755(6)
_cell_volume                     3315.56
loop_
_atom_site_label
_atom_site_type_symbol
_atom_site_fract_x
_atom_site_fract_y
_atom_site_fract_z
O1 O 0.0942(5) 0.0410(5) 0.1273(4)
H23 H 0.1529 0.0677 0.1294
H24 H 0.0741 0.0137 0.1792
O18 O 0.2249(5) 0.0469(5) 0.9144(4)
O19 O 0.0645(6) 0.0708(5) 0.9291(4)
Sr7 Sr 0.38428(8) 0.06581(7) 0.96192(6)
O16 O 0.2782(6) 0.1323(5) 0.0888(4)
O17 O 0.4416(7) 0.1644(5) 0.0687(5)
Sr4 Sr 0.11843(8) 0.92408(7) 0.02172(6)
C1 C 0.2365(10) 0.6757(8) 0.5649(7)
C2 C 0.2530(9) 0.7300(9) 0.4908(7)
H1 H 0.2531 0.7939 0.4907
C3 C 0.2700(9) 0.6937(9) 0.4144(6)
C4 C 0.2886(9) 0.5534(10) 0.3427(6)
H2 H 0.2999 0.5902 0.2914
C5 C 0.2913(9) 0.4637(9) 0.3432(6)
H3 H 0.3040 0.4386 0.2927
C6 C 0.2774(9) 0.3120(8) 0.4200(7)
C7 C 0.2548(8) 0.2582(8) 0.4973(6)
H4 H 0.2554 0.1941 0.4984
C8 C 0.2321(9) 0.2939(8) 0.5705(7)
C9 C 0.2138(10) 0.4349(10) 0.6440(7)
H5 H 0.2007 0.3986 0.6957
C10 C 0.2151(8) 0.5234(9) 0.6427(6)
H6 H 0.2024 0.5487 0.6931
C11 C 0.2350(8) 0.5831(7) 0.5675(6)
C12 C 0.2695(9) 0.5971(8) 0.4162(7)
C13 C 0.2754(9) 0.4045(8) 0.4189(7)
C14 C 0.2316(8) 0.3899(8) 0.5700(6)
C15 C 0.2508(8) 0.5413(8) 0.4936(6)
C16 C 0.2536(8) 0.4447(8) 0.4951(7)
C17 C 0.3448(8) 0.9165(8) 0.1055(6)
C18 C 0.3230(9) 0.8627(8) 0.1869(7)
C19 C 0.3863(9) 0.8693(8) 0.2430(6)
H7 H 0.4431 0.9090 0.2291
C20 C 0.3642(10) 0.8168(8) 0.3191(7)
H8 H 0.4036 0.8243 0.3585
C21 C 0.2854(10) 0.7535(8) 0.3387(7)
C22 C 0.2223(9) 0.7488(9) 0.2822(7)
H9 H 0.1671 0.7073 0.2948
C23 C 0.2411(9) 0.8048(9) 0.2081(7)
H10 H 0.1966 0.8031 0.1715
C24 C 0.3517(11) 0.1608(8) 0.1129(7)
C25 C 0.3357(11) 0.1951(9) 0.1957(8)
C26 C 0.4099(9) 0.2479(9) 0.2157(7)
H11 H 0.4725 0.2587 0.1789
C27 C 0.3913(10) 0.2841(8) 0.2892(7)
H12 H 0.4409 0.3207 0.3027
C28 C 0.2989(9) 0.2670(8) 0.3445(7)
C29 C 0.2274(10) 0.2110(9) 0.3255(7)
H13 H 0.1661 0.1970 0.3633
C30 C 0.2463(11) 0.1763(9) 0.2513(8)
H14 H 0.1972 0.1389 0.2381
C31 C 0.1553(9) 0.0818(7) 0.8889(6)
C32 C 0.1727(9) 0.1325(8) 0.8014(7)
C33 C 0.2642(8) 0.1290(8) 0.7517(6)
H15 H 0.3157 0.0936 0.7692
C34 C 0.2801(9) 0.1779(8) 0.6759(7)
H16 H 0.3428 0.1741 0.6398
C35 C 0.2088(10) 0.2321(8) 0.6502(7)
C36 C 0.1153(9) 0.2359(8) 0.7026(7)
H17 H 0.0656 0.2754 0.6875
C37 C 0.0969(9) 0.1810(9) 0.7767(7)
H18 H 0.0318 0.1770 0.8102
C38 C 0.1633(9) 0.8393(8) 0.8663(7)
C39 C 0.1853(8) 0.8018(8) 0.7858(6)
C40 C 0.2693(8) 0.7503(9) 0.7661(7)
H19 H 0.3158 0.7433 0.8014
C41 C 0.2858(9) 0.7083(8) 0.6940(7)
H20 H 0.3419 0.6706 0.6818
C42 C 0.2204(8) 0.7219(7) 0.6405(6)
C43 C 0.1397(10) 0.7757(9) 0.6595(7)
H21 H 0.0981 0.7897 0.6209
C44 C 0.1174(9) 0.8109(9) 0.7356(7)
H22 H 0.0560 0.8404 0.7519
O2 O 0.1004(6) 0.7553(6) 0.0700(5)
H25 H 0.0787 0.7287 0.1206
H26 H 0.1147 0.7101 0.0398
O4 O 0.4011(8) 0.2197(7) 0.8771(6)
H29 H 0.4574 0.2706 0.8721
H30 H 0.3530 0.2484 0.8385
O5 O 0.2808(5) 0.9271(5) 0.0627(4)
O6 O 0.4305(6) 0.9528(5) 0.0808(4)
O11 O 0.2307(6) 0.8378(6) 0.9082(4)
O12 O 0.0782(6) 0.8703(6) 0.8897(5)
O15 O 0.5695(6) 0.0472(5) 0.9192(4)
Sr8 Sr 0.61572(8) 0.93419(7) 0.03808(6)
O20 O 0.9355(6) 0.9292(5) 0.0709(4)
Sr5 Sr 0.88157(8) 0.07592(7) 0.97828(6)
O13 O 0.7192(5) 0.0729(5) 0.9373(4)
O21 O 0.7693(6) 0.1622(6) 0.0918(4)
O22 O 0.9218(6) 0.1297(6) 0.1103(5)
C1_2 C 0.7635(10) 0.3243(8) 0.4351(7)
C2_2 C 0.7470(9) 0.2700(9) 0.5092(7)
H1_2 H 0.7469 0.2061 0.5093
C3_2 C 0.7300(9) 0.3063(9) 0.5856(6)
C4_2 C 0.7114(9) 0.4466(10) 0.6573(6)
H2_2 H 0.7001 0.4098 0.7086
C5_2 C 0.7087(9) 0.5363(9) 0.6568(6)
H3_2 H 0.6960 0.5614 0.7073
C6_2 C 0.7226(9) 0.6880(8) 0.5800(7)
C7_2 C 0.7452(8) 0.7418(8) 0.5027(6)
H4_2 H 0.7446 0.8059 0.5016
C8_2 C 0.7679(9) 0.7061(8) 0.4295(7)
C9_2 C 0.7862(10) 0.5651(10) 0.3560(7)
H5_2 H 0.7993 0.6014 0.3043
C10_2 C 0.7849(8) 0.4766(9) 0.3573(6)
H6_2 H 0.7976 0.4513 0.3069
C11_2 C 0.7650(8) 0.4169(7) 0.4325(6)
C12_2 C 0.7305(9) 0.4029(8) 0.5838(7)
C13_2 C 0.7246(9) 0.5955(8) 0.5811(7)
C14_2 C 0.7684(8) 0.6101(8) 0.4300(6)
C15_2 C 0.7492(8) 0.4587(8) 0.5064(6)
C16_2 C 0.7464(8) 0.5553(8) 0.5049(7)
C17_2 C 0.6552(8) 0.0835(8) 0.8945(6)
C18_2 C 0.6770(9) 0.1373(8) 0.8131(7)
C19_2 C 0.6137(9) 0.1307(8) 0.7570(6)
H7_2 H 0.5569 0.0910 0.7709
C20_2 C 0.6358(10) 0.1832(8) 0.6809(7)
H8_2 H 0.5964 0.1757 0.6415
C21_2 C 0.7146(10) 0.2465(8) 0.6613(7)
C22_2 C 0.7777(9) 0.2512(9) 0.7178(7)
H9_2 H 0.8329 0.2927 0.7052
C23_2 C 0.7589(9) 0.1952(9) 0.7919(7)
H10_2 H 0.8034 0.1969 0.8285
C24_2 C 0.6483(11) 0.8392(8) 0.8871(7)
C25_2 C 0.6643(11) 0.8049(9) 0.8043(8)
C26_2 C 0.5901(9) 0.7521(9) 0.7843(7)
H11_2 H 0.5275 0.7413 0.8211
C27_2 C 0.6087(10) 0.7159(8) 0.7108(7)
H12_2 H 0.5591 0.6793 0.6973
C28_2 C 0.7011(9) 0.7330(8) 0.6555(7)
C29_2 C 0.7726(10) 0.7890(9) 0.6745(7)
H13_2 H 0.8339 0.8030 0.6367
C30_2 C 0.7537(11) 0.8237(9) 0.7487(8)
H14_2 H 0.8028 0.8611 0.7619
C31_2 C 0.8447(9) 0.9182(7) 0.1111(6)
C32_2 C 0.8273(9) 0.8675(8) 0.1986(7)
C33_2 C 0.7358(8) 0.8710(8) 0.2483(6)
H15_2 H 0.6843 0.9064 0.2308
C34_2 C 0.7199(9) 0.8221(8) 0.3241(7)
H16_2 H 0.6572 0.8259 0.3602
C35_2 C 0.7912(10) 0.7679(8) 0.3498(7)
C36_2 C 0.8847(9) 0.7641(8) 0.2974(7)
H17_2 H 0.9344 0.7246 0.3125
C37_2 C 0.9031(9) 0.8190(9) 0.2233(7)
H18_2 H 0.9682 0.8230 0.1898
C38_2 C 0.8367(9) 0.1607(8) 0.1337(7)
C39_2 C 0.8147(8) 0.1982(8) 0.2142(6)
C40_2 C 0.7307(8) 0.2497(9) 0.2339(7)
H19_2 H 0.6842 0.2567 0.1986
C41_2 C 0.7142(9) 0.2917(8) 0.3060(7)
H20_2 H 0.6581 0.3294 0.3182
C42_2 C 0.7796(8) 0.2781(7) 0.3595(6)
C43_2 C 0.8603(10) 0.2243(9) 0.3405(7)
H21_2 H 0.9019 0.2103 0.3791
C44_2 C 0.8826(9) 0.1891(9) 0.2644(7)
H22_2 H 0.9440 0.1596 0.2481
O2_2 O 0.8996(6) 0.2447(6) 0.9300(5)
H25_2 H 0.9213 0.2713 0.8794
H26_2 H 0.8853 0.2899 0.9602
O4_2 O 0.5989(8) 0.7803(7) 0.1229(6)
H29_2 H 0.5426 0.7294 0.1279
H30_2 H 0.6470 0.7516 0.1615
O7 O 0.7218(6) 0.8677(5) 0.9112(4)
O8 O 0.5584(7) 0.8356(5) 0.9313(5)
O9 O 0.7751(5) 0.9531(5) 0.0856(4)
O3 O 0.4117(5) 0.9382(5) 0.8709(4)
H27 H 0.3718 0.9438 0.8373
H28 H 0.3939 0.8876 0.9004
O3_2 O 0.5883(5) 0.0618(5) 0.1291(4)
H27_2 H 0.6282 0.0562 0.1627
H28_2 H 0.6061 0.1124 0.0996
O1_2 O 0.9058(5) 0.9590(5) 0.8727(4)
H23_2 H 0.8471 0.9323 0.8706
H24_2 H 0.9259 0.9863 0.8208
loop_
_geom_bond_atom_site_label_1
_geom_bond_atom_site_label_2
_geom_bond_site_symmetry_1
_geom_bond_site_symmetry_2
O1 H23 1_555 1_555
H24 O1 1_555 1_555
O18 Sr7 1_555 1_555
C1 C2 1_555 1_555
C2 H1 1_555 1_555
C3 C2 1_555 1_555
C4 H2 1_555 1_555
C5 C4 1_555 1_555
H3 C5 1_555 1_555
C6 C7 1_555 1_555
C7 H4 1_555 1_555
C8 C7 1_555 1_555
C9 H5 1_555 1_555
C10 C9 1_555 1_555
H6 C10 1_555 1_555
C11 C1 1_555 1_555
C12 C3 1_555 1_555
C13 C5 1_555 1_555
C14 C8 1_555 1_555
C15 C11 1_555 1_555
C16 C13 1_555 1_555
C17 C18 1_555 1_555
C18 C19 1_555 1_555
C19 H7 1_555 1_555
C20 C19 1_555 1_555
H8 C20 1_555 1_555
C21 C3 1_555 1_555
C22 C21 1_555 1_555
H9 C22 1_555 1_555
C23 C18 1_555 1_555
H10 C23 1_555 1_555
C24 C25 1_555 1_555
C25 C26 1_555 1_555
C26 H11 1_555 1_555
C27 C26 1_555 1_555
H12 C27 1_555 1_555
C28 C6 1_555 1_555
C29 C28 1_555 1_555
H13 C29 1_555 1_555
C30 C25 1_555 1_555
H14 C30 1_555 1_555
C31 C32 1_555 1_555
C32 C33 1_555 1_555
C33 H15 1_555 1_555
C34 C33 1_555 1_555
H16 C34 1_555 1_555
C35 C8 1_555 1_555
C36 C35 1_555 1_555
H17 C36 1_555 1_555
C37 C32 1_555 1_555
H18 C37 1_555 1_555
C38 C39 1_555 1_555
C39 C40 1_555 1_555
C40 H19 1_555 1_555
C41 C40 1_555 1_555
H20 C41 1_555 1_555
C42 C1 1_555 1_555
C43 C42 1_555 1_555
H21 C43 1_555 1_555
C44 C39 1_555 1_555
H22 C44 1_555 1_555
O2 H25 1_555 1_555
H26 O2 1_555 1_555
O4 H29 1_555 1_555
H30 O4 1_555 1_555
O5 C17 1_555 1_555
O6 C17 1_555 1_555
O16 C24 1_555 1_555
O17 C24 1_555 1_555
O18 C31 1_555 1_555
O19 C31 1_555 1_555
O11 C38 1_555 1_555
O12 C38 1_555 1_555
O15 Sr7 1_555 1_555
Sr8 O6 1_555 1_555
C4 C12 1_555 1_555
C6 C13 1_555 1_555
C9 C14 1_555 1_555
C10 C11 1_555 1_555
C12 C15 1_555 1_555
C14 C16 1_555 1_555
C15 C16 1_555 1_555
C20 C21 1_555 1_555
C22 C23 1_555 1_555
C27 C28 1_555 1_555
C29 C30 1_555 1_555
C34 C35 1_555 1_555
C36 C37 1_555 1_555
C41 C42 1_555 1_555
C43 C44 1_555 1_555
O2 Sr4 1_555 1_555
O4 Sr7 1_555 1_555
O5 Sr4 1_555 1_555
O13 Sr5 1_555 1_555
C1_2 C2_2 1_555 1_555
C2_2 H1_2 1_555 1_555
C3_2 C2_2 1_555 1_555
C4_2 H2_2 1_555 1_555
C5_2 C4_2 1_555 1_555
H3_2 C5_2 1_555 1_555
C6_2 C7_2 1_555 1_555
C7_2 H4_2 1_555 1_555
C8_2 C7_2 1_555 1_555
C9_2 H5_2 1_555 1_555
C10_2 C9_2 1_555 1_555
H6_2 C10_2 1_555 1_555
C11_2 C1_2 1_555 1_555
C12_2 C3_2 1_555 1_555
C13_2 C5_2 1_555 1_555
C14_2 C8_2 1_555 1_555
C15_2 C11_2 1_555 1_555
C16_2 C13_2 1_555 1_555
C17_2 C18_2 1_555 1_555
C18_2 C19_2 1_555 1_555
C19_2 H7_2 1_555 1_555
C20_2 C19_2 1_555 1_555
H8_2 C20_2 1_555 1_555
C21_2 C3_2 1_555 1_555
C22_2 C21_2 1_555 1_555
H9_2 C22_2 1_555 1_555
C23_2 C18_2 1_555 1_555
H10_2 C23_2 1_555 1_555
C24_2 C25_2 1_555 1_555
C25_2 C26_2 1_555 1_555
C26_2 H11_2 1_555 1_555
C27_2 C26_2 1_555 1_555
H12_2 C27_2 1_555 1_555
C28_2 C6_2 1_555 1_555
C29_2 C28_2 1_555 1_555
H13_2 C29_2 1_555 1_555
C30_2 C25_2 1_555 1_555
H14_2 C30_2 1_555 1_555
C31_2 C32_2 1_555 1_555
C32_2 C33_2 1_555 1_555
C33_2 H15_2 1_555 1_555
C34_2 C33_2 1_555 1_555
H16_2 C34_2 1_555 1_555
C35_2 C8_2 1_555 1_555
C36_2 C35_2 1_555 1_555
H17_2 C36_2 1_555 1_555
C37_2 C32_2 1_555 1_555
H18_2 C37_2 1_555 1_555
C38_2 C39_2 1_555 1_555
C39_2 C40_2 1_555 1_555
C40_2 H19_2 1_555 1_555
C41_2 C40_2 1_555 1_555
H20_2 C41_2 1_555 1_555
C42_2 C1_2 1_555 1_555
C43_2 C42_2 1_555 1_555
H21_2 C43_2 1_555 1_555
C44_2 C39_2 1_555 1_555
H22_2 C44_2 1_555 1_555
O2_2 H25_2 1_555 1_555
H26_2 O2_2 1_555 1_555
O4_2 H29_2 1_555 1_555
H30_2 O4_2 1_555 1_555
O13 C17_2 1_555 1_555
O15 C17_2 1_555 1_555
O7 C24_2 1_555 1_555
O8 C24_2 1_555 1_555
O9 C31_2 1_555 1_555
O20 C31_2 1_555 1_555
O21 C38_2 1_555 1_555
O22 C38_2 1_555 1_555
C4_2 C12_2 1_555 1_555
C6_2 C13_2 1_555 1_555
C9_2 C14_2 1_555 1_555
C10_2 C11_2 1_555 1_555
C12_2 C15_2 1_555 1_555
C14_2 C16_2 1_555 1_555
C15_2 C16_2 1_555 1_555
C20_2 C21_2 1_555 1_555
C22_2 C23_2 1_555 1_555
C27_2 C28_2 1_555 1_555
C29_2 C30_2 1_555 1_555
C34_2 C35_2 1_555 1_555
C36_2 C37_2 1_555 1_555
C41_2 C42_2 1_555 1_555
C43_2 C44_2 1_555 1_555
O2_2 Sr5 1_555 1_555
O4_2 Sr8 1_555 1_555
O9 Sr8 1_555 1_555
O3 H27 1_555 1_555
H28 O3 1_555 1_555
O3_2 H27_2 1_555 1_555
H28_2 O3_2 1_555 1_555
O1_2 H23_2 1_555 1_555
H24_2 O1_2 1_555 1_555

#END
