
###############################################################################
#
# This file contains modified crystal structure data generated from the
# MOF subset of the Cambridge Structural Database (CSD) v543 
# hosted by the Cambridge Crystallographic Data Centre (CCDC).
#
# This work is licensed under the Creative Commons
# Attribution-NonCommercial-ShareAlike 4.0 International License.
# To view a copy of this license, visit
# http://creativecommons.org/licenses/by-nc-sa/4.0/
# or send a letter to
# Creative Commons, PO Box 1866, Mountain View, CA 94042, USA.
#
# CIF created using the CSD Python API on 29 September 2022
# The structure has been converted into the P1 space group
# The structure has a 3D framework
# The original CSD entry ZUPDUM is in the monoclinic crystal system
# The framework has been calculated to contain at least 10.0% void space
# The void calculation uses a probe of radius 1.32A, grid spacing 0.4
#
###############################################################################

data_ZUPDUM
_chemical_formula_moiety         '(C16 H32 N16 Ni8 O30)n'
_symmetry_cell_setting           triclinic
_symmetry_space_group_name_H-M   'P 1'
_symmetry_Int_Tables_number      1
_space_group_name_Hall           'P 1'
loop_
_symmetry_equiv_pos_site_id
_symmetry_equiv_pos_as_xyz
1 x,y,z
_cell_length_a                   7.3478(3)
_cell_length_b                   16.778(3)
_cell_length_c                   11.5793(18)
_cell_angle_alpha                90
_cell_angle_beta                 106.838(9)
_cell_angle_gamma                90
_cell_volume                     1366.31
loop_
_atom_site_label
_atom_site_type_symbol
_atom_site_fract_x
_atom_site_fract_y
_atom_site_fract_z
O1 O 0.0144(3) 0.40701(12) 0.4369(2)
O2 O 0.2455(3) 0.49203(12) 0.52566(18)
C1 C 0.0745(4) 0.47085(17) 0.4891(2)
Ni3 Ni 0.28079(5) 0.60407(2) 0.60215(3)
O2_2 O 0.7545(3) 0.49203(12) 0.97434(18)
Ni3_2 Ni 0.71921(5) 0.60407(2) 0.89785(3)
Ni1 Ni 0.21921(5) 0.89593(2) 0.39785(3)
O1_2 O 0.5144(3) 0.90701(12) 0.4369(2)
O2_3 O 0.7455(3) 0.99203(12) 0.52566(18)
O3 O 0.2261(3) 0.77783(12) 0.35118(18)
O4 O 0.2515(3) 0.65653(12) 0.43456(18)
C1_2 C 0.5745(4) 0.97085(17) 0.4891(2)
C2 C 0.2437(4) 0.73130(17) 0.4381(2)
O7 O 0.2739(3) 0.72217(12) 0.64882(18)
O8 O 0.2485(3) 0.84347(12) 0.56544(18)
C4 C 0.2563(4) 0.76870(17) 0.5619(2)
N3 N 0.0717(3) 0.89324(15) 0.1270(2)
H5 H 0.1100 0.8421 0.1379
H6 H 0.0932 0.9101 0.0583
N4 N 0.1911(4) 0.93977(15) 0.2260(2)
H7 H 0.1433 0.9894 0.2214
H8 H 0.3078 0.9434 0.2159
O12 O 0.7515(3) 0.84347(12) 0.93456(18)
O2_4 O 0.2545(3) 0.99203(12) 0.97434(18)
O7_2 O 0.7261(3) 0.72217(12) 0.85118(18)
C4_2 C 0.7437(4) 0.76870(17) 0.9381(2)
N1 N 0.5717(3) 0.60676(15) 0.6270(2)
H1 H 0.6100 0.6579 0.6379
H2 H 0.5932 0.5899 0.5583
N2 N 0.6911(4) 0.56023(15) 0.7260(2)
H3 H 0.6433 0.5106 0.7214
H4 H 0.8078 0.5566 0.7159
N3_2 N 0.4283(3) 0.60676(15) 0.8730(2)
H5_2 H 0.3900 0.6579 0.8621
H6_2 H 0.4068 0.5899 0.9417
N4_2 N 0.3089(4) 0.56023(15) 0.7740(2)
H7_2 H 0.3567 0.5106 0.7786
H8_2 H 0.1922 0.5566 0.7841
Ni1_2 Ni 0.71921(5) 0.39593(2) 0.39785(3)
O3_2 O 0.7261(3) 0.27783(12) 0.35118(18)
O4_2 O 0.7515(3) 0.15653(12) 0.43456(18)
N1_2 N 0.4283(3) 0.39324(15) 0.3730(2)
H1_2 H 0.3900 0.3421 0.3621
H2_2 H 0.4068 0.4101 0.4417
N2_2 N 0.3089(4) 0.43977(15) 0.2740(2)
H3_2 H 0.3567 0.4894 0.2786
H4_2 H 0.1922 0.4434 0.2841
C2_2 C 0.7437(4) 0.23130(17) 0.4381(2)
O5 O 0.9856(3) 0.59299(12) 0.5631(2)
O6 O 0.7545(3) 0.50797(12) 0.47434(18)
C3 C 0.9255(4) 0.52915(17) 0.5109(2)
O7_3 O 0.7739(3) 0.22217(12) 0.64882(18)
O8_2 O 0.7485(3) 0.34347(12) 0.56544(18)
C4_3 C 0.7563(4) 0.26870(17) 0.5619(2)
Ni2 Ni 0.28079(5) 0.39593(2) 0.10215(3)
N3_3 N 0.5717(3) 0.39324(15) 0.1270(2)
H5_3 H 0.6100 0.3421 0.1379
H6_3 H 0.5932 0.4101 0.0583
N4_3 N 0.6911(4) 0.43977(15) 0.2260(2)
H7_3 H 0.6433 0.4894 0.2214
H8_3 H 0.8078 0.4434 0.2159
Ni4 Ni 0.78079(5) 0.10407(2) 0.60215(3)
O10 O 0.2455(3) 0.50797(12) 0.02566(18)
O11 O 0.2739(3) 0.27783(12) 0.14882(18)
O4_3 O 0.2485(3) 0.15653(12) 0.06544(18)
C2_3 C 0.2563(4) 0.23130(17) 0.0619(2)
O5_2 O 0.4856(3) 0.09299(12) 0.5631(2)
O6_2 O 0.2545(3) 0.00797(12) 0.47434(18)
C3_2 C 0.4255(4) 0.02915(17) 0.5109(2)
O10_2 O 0.7455(3) 0.00797(12) 0.02566(18)
N3_4 N 0.9283(3) 0.10676(15) 0.8730(2)
H5_4 H 0.8900 0.1579 0.8621
H6_4 H 0.9068 0.0899 0.9417
N4_4 N 0.8089(4) 0.06023(15) 0.7740(2)
H7_4 H 0.8567 0.0106 0.7786
H8_4 H 0.6922 0.0566 0.7841
O12_2 O 0.2515(3) 0.34347(12) 0.93456(18)
O5_3 O 0.0144(3) 0.59299(12) 0.9369(2)
C3_3 C 0.0745(4) 0.52915(17) 0.9891(2)
O7_4 O 0.2261(3) 0.22217(12) 0.85118(18)
C4_4 C 0.2437(4) 0.26870(17) 0.9381(2)
Ni4_2 Ni 0.21921(5) 0.10407(2) 0.89785(3)
O5_4 O 0.5144(3) 0.09299(12) 0.9369(2)
C3_4 C 0.5745(4) 0.02915(17) 0.9891(2)
N1_3 N 0.0717(3) 0.10676(15) 0.6270(2)
H1_3 H 0.1100 0.1579 0.6379
H2_3 H 0.0932 0.0899 0.5583
N2_3 N 0.1911(4) 0.06023(15) 0.7260(2)
H3_3 H 0.1433 0.0106 0.7214
H4_3 H 0.3078 0.0566 0.7159
O9 O 0.9856(3) 0.40701(12) 0.0631(2)
C1_3 C 0.9255(4) 0.47085(17) 0.0109(2)
N1_4 N 0.9283(3) 0.89324(15) 0.3730(2)
H1_4 H 0.8900 0.8421 0.3621
H2_4 H 0.9068 0.9101 0.4417
N2_4 N 0.8089(4) 0.93977(15) 0.2740(2)
H3_4 H 0.8567 0.9894 0.2786
H4_4 H 0.6922 0.9434 0.2841
Ni2_2 Ni 0.78079(5) 0.89593(2) 0.10215(3)
O9_2 O 0.4856(3) 0.90701(12) 0.0631(2)
O11_2 O 0.7739(3) 0.77783(12) 0.14882(18)
O4_4 O 0.7485(3) 0.65653(12) 0.06544(18)
C1_4 C 0.4255(4) 0.97085(17) 0.0109(2)
C2_4 C 0.7563(4) 0.73130(17) 0.0619(2)
loop_
_geom_bond_atom_site_label_1
_geom_bond_atom_site_label_2
_geom_bond_site_symmetry_1
_geom_bond_site_symmetry_2
O1 C1 1_555 1_555
O2 C1 1_555 1_555
Ni3 O2 1_555 1_555
Ni3_2 O2_2 1_555 1_555
Ni1 O1_2 1_555 1_555
O1_2 C1_2 1_555 1_555
O2_3 C1_2 1_555 1_555
O3 Ni1 1_555 1_555
O4 C2 1_555 1_555
C2 O3 1_555 1_555
O7 C4 1_555 1_555
O8 Ni1 1_555 1_555
C4 C2 1_555 1_555
H5 N3 1_555 1_555
H6 N3 1_555 1_555
N4 Ni1 1_555 1_555
H7 N4 1_555 1_555
H8 N4 1_555 1_555
Ni3 O4 1_555 1_555
O7 Ni3 1_555 1_555
O8 C4 1_555 1_555
N3 N4 1_555 1_555
O7_2 C4_2 1_555 1_555
O7_2 Ni3_2 1_555 1_555
O12 C4_2 1_555 1_555
N1 Ni3 1_555 1_555
H1 N1 1_555 1_555
H2 N1 1_555 1_555
N2 N1 1_555 1_555
H3 N2 1_555 1_555
H4 N2 1_555 1_555
Ni3_2 N2 1_555 1_555
N3_2 Ni3_2 1_555 1_555
H5_2 N3_2 1_555 1_555
H6_2 N3_2 1_555 1_555
N4_2 Ni3 1_555 1_555
H7_2 N4_2 1_555 1_555
H8_2 N4_2 1_555 1_555
N3_2 N4_2 1_555 1_555
O3_2 Ni1_2 1_555 1_555
O4_2 C2_2 1_555 1_555
N1_2 Ni1_2 1_555 1_555
H1_2 N1_2 1_555 1_555
H2_2 N1_2 1_555 1_555
N2_2 N1_2 1_555 1_555
H3_2 N2_2 1_555 1_555
H4_2 N2_2 1_555 1_555
C2_2 O3_2 1_555 1_555
O5 C3 1_555 1_555
O6 Ni1_2 1_555 1_555
C3 O6 1_555 1_555
O7_3 C4_3 1_555 1_555
O8_2 Ni1_2 1_555 1_555
C4_3 C2_2 1_555 1_555
Ni2 N2_2 1_555 1_555
N3_3 Ni2 1_555 1_555
H5_3 N3_3 1_555 1_555
H6_3 N3_3 1_555 1_555
N4_3 Ni1_2 1_555 1_555
H7_3 N4_3 1_555 1_555
H8_3 N4_3 1_555 1_555
Ni4 O4_2 1_555 1_555
O10 Ni2 1_555 1_555
O11 Ni2 1_555 1_555
O7_3 Ni4 1_555 1_555
O8_2 C4_3 1_555 1_555
N3_3 N4_3 1_555 1_555
O4_3 C2_3 1_555 1_555
C2_3 O11 1_555 1_555
O5_2 C3_2 1_555 1_555
C3_2 O6_2 1_555 1_555
O5_2 Ni4 1_555 1_555
H5_4 N3_4 1_555 1_555
H6_4 N3_4 1_555 1_555
N4_4 Ni4 1_555 1_555
H7_4 N4_4 1_555 1_555
H8_4 N4_4 1_555 1_555
N3_4 N4_4 1_555 1_555
O5_3 C3_3 1_555 1_555
O7_4 C4_4 1_555 1_555
O7_4 Ni4_2 1_555 1_555
O12_2 C4_4 1_555 1_555
O5_4 C3_4 1_555 1_555
O5_4 Ni4_2 1_555 1_555
H1_3 N1_3 1_555 1_555
H2_3 N1_3 1_555 1_555
N2_3 N1_3 1_555 1_555
H3_3 N2_3 1_555 1_555
H4_3 N2_3 1_555 1_555
Ni4_2 N2_3 1_555 1_555
O9 C1_3 1_555 1_555
H1_4 N1_4 1_555 1_555
H2_4 N1_4 1_555 1_555
N2_4 N1_4 1_555 1_555
H3_4 N2_4 1_555 1_555
H4_4 N2_4 1_555 1_555
Ni2_2 N2_4 1_555 1_555
O9_2 Ni2_2 1_555 1_555
O11_2 Ni2_2 1_555 1_555
O9_2 C1_4 1_555 1_555
O4_4 C2_4 1_555 1_555
C2_4 O11_2 1_555 1_555

#END
