
###############################################################################
#
# This file contains modified crystal structure data generated from the
# MOF subset of the Cambridge Structural Database (CSD) v543 
# hosted by the Cambridge Crystallographic Data Centre (CCDC).
#
# This work is licensed under the Creative Commons
# Attribution-NonCommercial-ShareAlike 4.0 International License.
# To view a copy of this license, visit
# http://creativecommons.org/licenses/by-nc-sa/4.0/
# or send a letter to
# Creative Commons, PO Box 1866, Mountain View, CA 94042, USA.
#
# CIF created using the CSD Python API on 29 September 2022
# The structure has been converted into the P1 space group
# The structure has a 3D framework
# The original CSD entry ZUQNAD is in the hexagonal crystal system
# The original CSD entry ZUQNAD is in a Sohncke space group
# The framework has been calculated to contain at least 10.0% void space
# The void calculation uses a probe of radius 1.32A, grid spacing 0.4
# H atom positions have been added when not included in the experimental data
#
###############################################################################

data_ZUQNAD
_chemical_formula_moiety         '(C48 H48 Ca2 Cu9 N12 O56)n'
_symmetry_cell_setting           triclinic
_symmetry_space_group_name_H-M   'P 1'
_symmetry_Int_Tables_number      1
_space_group_name_Hall           'P 1'
loop_
_symmetry_equiv_pos_site_id
_symmetry_equiv_pos_as_xyz
1 x,y,z
_cell_length_a                   17.7840(16)
_cell_length_b                   17.7840(16)
_cell_length_c                   12.5090(14)
_cell_angle_alpha                90
_cell_angle_beta                 90
_cell_angle_gamma                120
_cell_volume                     3426.2
loop_
_atom_site_label
_atom_site_type_symbol
_atom_site_fract_x
_atom_site_fract_y
_atom_site_fract_z
N6 N 0.5916(11) 0.0991(7) 0.3682(11)
O25 O 0.4444(7) 0.0217(5) 0.4742(8)
O26 O 0.7970(11) 0.2880(7) 0.3875(10)
O27 O 0.6753(6) 0.2386(4) 0.4779(7)
C17 C 0.5399(13) 0.0212(9) 0.3373(14)
C19 C 0.6792(12) 0.1559(8) 0.3299(11)
H5 H 0.713032 0.124796 0.331603
C20 C 0.7200(13) 0.2322(8) 0.4011(13)
C24 C 0.6782(16) 0.1880(10) 0.2134(11)
O29 O 0.6285(17) 0.2227(13) 0.1939(16)
Cu8 Cu 0.86104(8) 0.41446(8) 0.48699(13)
Cu12 Cu 0.55342(11) 0.13896(8) 0.48699(13)
Ca4 Ca 0.666667 0.333333 0.6200(5)
H19 H 0.65666 0.13234 0.16046
H20 H 0.744654 0.236769 0.193495
H23 H 0.647246 0.274612 0.239849
Cu1 Cu 0.13818(9) 0.57998(8) 0.24974(13)
Ca1 Ca 0.333333 0.666667 0.1200(5)
N1 N 0.0967(7) 0.4971(8) 0.3624(10)
O1 O 0.1798(3) 0.6438(3) 0.1196(9)
O2 O 0.0211(5) 0.5711(5) 0.2627(9)
O3 O 0.2391(5) 0.5618(5) 0.2550(8)
O4 O 0.2980(6) 0.4981(7) 0.3527(8)
C2 C 0.0208(7) 0.4760(8) 0.3999(12)
C5 C 0.1526(10) 0.4645(11) 0.3989(15)
H2 H 0.167156 0.479157 0.476127
C6 C 0.2380(9) 0.5132(9) 0.3288(12)
C7 C 0.1107(10) 0.3647(10) 0.3824(19)
O8 O 0.0858(10) 0.3355(9) 0.2766(18)
O10 O 0.0562(14) 0.4384(14) 0.117(3)
Cu3 Cu 0.42002(8) 0.55820(12) 0.24974(13)
N3 N 0.5029(8) 0.5996(11) 0.3624(10)
N4 N 0.5075(8) 0.4084(11) 0.3682(11)
O11 O 0.3562(3) 0.5360(4) 0.1196(9)
O12 O 0.4289(5) 0.4500(7) 0.2627(9)
O13 O 0.4382(5) 0.6773(7) 0.2550(8)
O14 O 0.5019(7) 0.7999(9) 0.3527(8)
O15 O 0.5773(5) 0.5556(7) 0.4742(8)
O16 O 0.4910(9) 0.2030(11) 0.3875(10)
O17 O 0.5633(5) 0.3247(6) 0.4779(7)
C9 C 0.4813(9) 0.4601(13) 0.3373(14)
C10 C 0.5240(8) 0.5448(11) 0.3999(12)
C11 C 0.4767(9) 0.3208(12) 0.3299(11)
H3 H 0.411764 0.286968 0.331603
C12 C 0.5122(10) 0.2800(13) 0.4011(13)
C13 C 0.5355(11) 0.6881(15) 0.3989(15)
H4 H 0.520843 0.687999 0.476127
C14 C 0.4868(9) 0.7248(13) 0.3288(12)
C15 C 0.6353(10) 0.7460(14) 0.3824(19)
O18 O 0.6645(9) 0.7503(13) 0.2766(18)
C16 C 0.5098(12) 0.3218(16) 0.2134(11)
O19 O 0.5942(11) 0.3715(17) 0.1939(16)
O20 O 0.5616(14) 0.6178(20) 0.117(3)
Cu5 Cu 0.44180(12) 0.86182(9) 0.24974(13)
N5 N 0.4004(11) 0.9033(7) 0.3624(10)
O21 O 0.4640(4) 0.8202(3) 0.1196(9)
O22 O 0.5500(7) 0.9789(5) 0.2627(9)
O23 O 0.3227(7) 0.7609(5) 0.2550(8)
O24 O 0.2001(9) 0.7020(6) 0.3527(8)
C18 C 0.4552(11) 0.9792(7) 0.3999(12)
C21 C 0.3119(15) 0.8474(10) 0.3989(15)
H6 H 0.312001 0.832844 0.476127
C22 C 0.2752(13) 0.7620(9) 0.3288(12)
C23 C 0.2540(14) 0.8893(10) 0.3824(19)
O28 O 0.2497(13) 0.9142(10) 0.2766(18)
O30 O 0.3822(20) 0.9438(14) 0.117(3)
Cu10 Cu 0.58554(8) 0.44658(11) 0.48699(13)
H9 H 0.137567 0.363237 0.229352
H10 H 0.0530782 0.332643 0.432644
H11 H 0.157463 0.345796 0.407895
H13 H 0.667357 0.720435 0.432644
H14 H 0.654204 0.811667 0.407895
H15 H 0.475681 0.34334 0.16046
H16 H 0.492115 0.255346 0.193495
H17 H 0.627367 0.352754 0.239849
H18 H 0.636763 0.774329 0.229352
H21 H 0.279565 0.946922 0.432644
H22 H 0.188333 0.842537 0.407895
H24 H 0.225671 0.862433 0.229352
Cu2 Cu 0.13896(8) 0.58554(8) 0.98699(13)
Cu4 Cu 0.41446(8) 0.55342(11) 0.98699(13)
Cu6 Cu 0.44658(11) 0.86104(8) 0.98699(13)
N7 N 0.0991(7) 0.5075(8) 0.8682(11)
N8 N 0.4925(8) 0.5916(11) 0.8682(11)
N9 N 0.4084(11) 0.9009(7) 0.8682(11)
O31 O 0.0217(5) 0.5773(5) 0.9742(8)
O32 O 0.4227(5) 0.4444(7) 0.9742(8)
O33 O 0.5556(7) 0.9783(5) 0.9742(8)
O34 O 0.2880(7) 0.4910(9) 0.8875(10)
O35 O 0.5090(9) 0.7970(11) 0.8875(10)
O36 O 0.2030(11) 0.7120(7) 0.8875(10)
O37 O 0.2386(4) 0.5633(5) 0.9779(7)
O38 O 0.4367(5) 0.6753(6) 0.9779(7)
O39 O 0.3247(6) 0.7614(4) 0.9779(7)
N2 N 0.9009(7) 0.4925(8) 0.3682(11)
O5 O 0.9783(5) 0.4227(5) 0.4742(8)
O6 O 0.7120(7) 0.5090(9) 0.3875(10)
O7 O 0.7614(4) 0.4367(5) 0.4779(7)
C1 C 0.9788(9) 0.5187(9) 0.3373(14)
C3 C 0.8441(8) 0.5233(9) 0.3299(11)
H1 H 0.875204 0.588236 0.331603
C4 C 0.7678(8) 0.4878(10) 0.4011(13)
C8 C 0.8120(10) 0.4902(12) 0.2134(11)
O9 O 0.7773(13) 0.4058(11) 0.1939(16)
H7 H 0.86766 0.524319 0.16046
H8 H 0.763231 0.507885 0.193495
H12 H 0.725388 0.372633 0.239849
C1_2 C 0.0212(9) 0.4813(9) 0.8373(14)
C3_2 C 0.1559(8) 0.4767(9) 0.8299(11)
H1_2 H 0.124796 0.411764 0.831603
C4_2 C 0.2322(8) 0.5122(10) 0.9011(13)
C8_2 C 0.1880(10) 0.5098(12) 0.7134(11)
O9_2 O 0.2227(13) 0.5942(11) 0.6939(16)
H7_2 H 0.13234 0.475681 0.66046
H8_2 H 0.236769 0.492115 0.693495
H12_2 H 0.274612 0.627367 0.739849
Cu1_2 Cu 0.86182(9) 0.42002(8) 0.74974(13)
N1_2 N 0.9033(7) 0.5029(8) 0.8624(10)
O1_2 O 0.8202(3) 0.3562(3) 0.6196(9)
O2_2 O 0.9789(5) 0.4289(5) 0.7627(9)
O3_2 O 0.7609(5) 0.4382(5) 0.7550(8)
O4_2 O 0.7020(6) 0.5019(7) 0.8527(8)
C2_2 C 0.9792(7) 0.5240(8) 0.8999(12)
C5_2 C 0.8474(10) 0.5355(11) 0.8989(15)
H2_2 H 0.832844 0.520843 0.976127
C6_2 C 0.7620(9) 0.4868(9) 0.8288(12)
C7_2 C 0.8893(10) 0.6353(10) 0.8824(19)
O8_2 O 0.9142(10) 0.6645(9) 0.7766(18)
O10_2 O 0.9438(14) 0.5616(14) 0.617(3)
Cu3_2 Cu 0.57998(8) 0.44180(12) 0.74974(13)
N3_2 N 0.4971(8) 0.4004(11) 0.8624(10)
O11_2 O 0.6438(3) 0.4640(4) 0.6196(9)
O12_2 O 0.5711(5) 0.5500(7) 0.7627(9)
O13_2 O 0.5618(5) 0.3227(7) 0.7550(8)
O14_2 O 0.4981(7) 0.2001(9) 0.8527(8)
C9_2 C 0.5187(9) 0.5399(13) 0.8373(14)
C10_2 C 0.4760(8) 0.4552(11) 0.8999(12)
C11_2 C 0.5233(9) 0.6792(12) 0.8299(11)
H3_2 H 0.588236 0.713032 0.831603
C12_2 C 0.4878(10) 0.7200(13) 0.9011(13)
C13_2 C 0.4645(11) 0.3119(15) 0.8989(15)
H4_2 H 0.479157 0.312001 0.976127
C14_2 C 0.5132(9) 0.2752(13) 0.8288(12)
C15_2 C 0.3647(10) 0.2540(14) 0.8824(19)
O18_2 O 0.3355(9) 0.2497(13) 0.7766(18)
C16_2 C 0.4902(12) 0.6782(16) 0.7134(11)
O19_2 O 0.4058(11) 0.6285(17) 0.6939(16)
O20_2 O 0.4384(14) 0.3822(20) 0.617(3)
Cu5_2 Cu 0.55820(12) 0.13818(9) 0.74974(13)
N5_2 N 0.5996(11) 0.0967(7) 0.8624(10)
O21_2 O 0.5360(4) 0.1798(3) 0.6196(9)
O22_2 O 0.4500(7) 0.0211(5) 0.7627(9)
O23_2 O 0.6773(7) 0.2391(5) 0.7550(8)
O24_2 O 0.7999(9) 0.2980(6) 0.8527(8)
C18_2 C 0.5448(11) 0.0208(7) 0.8999(12)
C21_2 C 0.6881(15) 0.1526(10) 0.8989(15)
H6_2 H 0.687999 0.167156 0.976127
C22_2 C 0.7248(13) 0.2380(9) 0.8288(12)
C23_2 C 0.7460(14) 0.1107(10) 0.8824(19)
O28_2 O 0.7503(13) 0.0858(10) 0.7766(18)
O30_2 O 0.6178(20) 0.0562(14) 0.617(3)
H9_2 H 0.862433 0.636763 0.729352
H10_2 H 0.946922 0.667357 0.932644
H11_2 H 0.842537 0.654204 0.907895
H13_2 H 0.332643 0.279565 0.932644
H14_2 H 0.345796 0.188333 0.907895
H15_2 H 0.524319 0.65666 0.66046
H16_2 H 0.507885 0.744654 0.693495
H17_2 H 0.372633 0.647246 0.739849
H18_2 H 0.363237 0.225671 0.729352
H21_2 H 0.720435 0.0530782 0.932644
H22_2 H 0.811667 0.157463 0.907895
H24_2 H 0.774329 0.137567 0.729352
C17_2 C 0.4601(13) 0.9788(9) 0.8373(14)
C19_2 C 0.3208(12) 0.8441(8) 0.8299(11)
H5_2 H 0.286968 0.875204 0.831603
C20_2 C 0.2800(13) 0.7678(8) 0.9011(13)
C24_2 C 0.3218(16) 0.8120(10) 0.7134(11)
O29_2 O 0.3715(17) 0.7773(13) 0.6939(16)
H19_2 H 0.34334 0.86766 0.66046
H20_2 H 0.255346 0.763231 0.693495
H23_2 H 0.352754 0.725388 0.739849
loop_
_geom_bond_atom_site_label_1
_geom_bond_atom_site_label_2
_geom_bond_site_symmetry_1
_geom_bond_site_symmetry_2
N6 C17 1_555 1_555
O26 C20 1_555 1_555
O27 C20 1_555 1_555
C19 N6 1_555 1_555
H5 C19 1_555 1_555
C20 C19 1_555 1_555
C24 C19 1_555 1_555
O29 C24 1_555 1_555
Cu8 O26 1_555 1_555
Cu12 N6 1_555 1_555
Ca4 O27 1_555 1_555
O25 Cu12 1_555 1_555
O27 Cu12 1_555 1_555
C24 H19 1_555 1_555
C24 H20 1_555 1_555
O29 H23 1_555 1_555
Cu1 N1 1_555 1_555
Ca1 O1 1_555 1_555
N1 C2 1_555 1_555
O1 Cu1 1_555 1_555
O2 Cu1 1_555 1_555
O3 Cu1 1_555 1_555
O4 C6 1_555 1_555
C5 N1 1_555 1_555
H2 C5 1_555 1_555
C6 O3 1_555 1_555
C7 C5 1_555 1_555
O8 C7 1_555 1_555
O10 Cu1 1_555 1_555
Cu3 O4 1_555 1_555
N3 Cu3 1_555 1_555
N4 C9 1_555 1_555
O11 Ca1 1_555 1_555
O12 Cu3 1_555 1_555
O13 Ca1 1_555 1_555
O14 C14 1_555 1_555
O15 C10 1_555 1_555
O16 C12 1_555 1_555
O17 C12 1_555 1_555
C9 O12 1_555 1_555
C10 N3 1_555 1_555
C11 N4 1_555 1_555
H3 C11 1_555 1_555
C12 C11 1_555 1_555
C13 N3 1_555 1_555
H4 C13 1_555 1_555
C14 O13 1_555 1_555
C15 C13 1_555 1_555
O18 C15 1_555 1_555
C16 C11 1_555 1_555
O19 C16 1_555 1_555
O20 Cu3 1_555 1_555
Cu5 O14 1_555 1_555
N5 Cu5 1_555 1_555
O21 Ca1 1_555 1_555
O22 Cu5 1_555 1_555
O23 Ca1 1_555 1_555
O24 Cu1 1_555 1_555
C18 N5 1_555 1_555
C21 N5 1_555 1_555
H6 C21 1_555 1_555
C22 O23 1_555 1_555
C23 C21 1_555 1_555
O28 C23 1_555 1_555
O30 Cu5 1_555 1_555
Cu10 N4 1_555 1_555
Cu12 O16 1_555 1_555
Ca4 O17 1_555 1_555
Ca1 O3 1_555 1_555
C5 C6 1_555 1_555
Cu3 O11 1_555 1_555
Cu3 O13 1_555 1_555
O15 Cu10 1_555 1_555
O17 Cu10 1_555 1_555
C9 C10 1_555 1_555
C13 C14 1_555 1_555
Cu5 O21 1_555 1_555
Cu5 O23 1_555 1_555
O24 C22 1_555 1_555
C21 C22 1_555 1_555
O8 H9 1_555 1_555
C7 H10 1_555 1_555
C7 H11 1_555 1_555
C15 H13 1_555 1_555
C15 H14 1_555 1_555
C16 H15 1_555 1_555
C16 H16 1_555 1_555
O19 H17 1_555 1_555
O18 H18 1_555 1_555
C23 H21 1_555 1_555
C23 H22 1_555 1_555
O28 H24 1_555 1_555
N7 Cu2 1_555 1_555
N8 Cu4 1_555 1_555
N9 Cu6 1_555 1_555
O31 Cu2 1_555 1_555
O32 Cu4 1_555 1_555
O33 Cu6 1_555 1_555
O34 Cu4 1_555 1_555
O35 Cu6 1_555 1_555
O36 Cu2 1_555 1_555
O37 Cu2 1_555 1_555
Cu4 O38 1_555 1_555
Cu6 O39 1_555 1_555
N2 C1 1_555 1_555
O6 C4 1_555 1_555
O7 C4 1_555 1_555
C3 N2 1_555 1_555
H1 C3 1_555 1_555
C4 C3 1_555 1_555
C8 C3 1_555 1_555
O9 C8 1_555 1_555
Cu8 N2 1_555 1_555
Cu10 O6 1_555 1_555
Ca4 O7 1_555 1_555
O5 Cu8 1_555 1_555
O7 Cu8 1_555 1_555
C8 H7 1_555 1_555
C8 H8 1_555 1_555
O9 H12 1_555 1_555
N7 C1_2 1_555 1_555
O34 C4_2 1_555 1_555
O37 C4_2 1_555 1_555
C3_2 N7 1_555 1_555
H1_2 C3_2 1_555 1_555
C4_2 C3_2 1_555 1_555
C8_2 C3_2 1_555 1_555
O9_2 C8_2 1_555 1_555
C8_2 H7_2 1_555 1_555
C8_2 H8_2 1_555 1_555
O9_2 H12_2 1_555 1_555
Cu1_2 N1_2 1_555 1_555
Cu8 O1_2 1_555 1_555
Ca4 O1_2 1_555 1_555
N1_2 C2_2 1_555 1_555
O1_2 Cu1_2 1_555 1_555
O2_2 Cu1_2 1_555 1_555
O3_2 Cu1_2 1_555 1_555
O4_2 C6_2 1_555 1_555
C5_2 N1_2 1_555 1_555
H2_2 C5_2 1_555 1_555
C6_2 O3_2 1_555 1_555
C7_2 C5_2 1_555 1_555
O8_2 C7_2 1_555 1_555
O10_2 Cu1_2 1_555 1_555
Cu3_2 O4_2 1_555 1_555
Cu10 O11_2 1_555 1_555
N3_2 Cu3_2 1_555 1_555
N8 C9_2 1_555 1_555
O11_2 Ca4 1_555 1_555
O12_2 Cu3_2 1_555 1_555
O13_2 Ca4 1_555 1_555
O14_2 C14_2 1_555 1_555
O32 C10_2 1_555 1_555
O35 C12_2 1_555 1_555
O38 C12_2 1_555 1_555
C9_2 O12_2 1_555 1_555
C10_2 N3_2 1_555 1_555
C11_2 N8 1_555 1_555
H3_2 C11_2 1_555 1_555
C12_2 C11_2 1_555 1_555
C13_2 N3_2 1_555 1_555
H4_2 C13_2 1_555 1_555
C14_2 O13_2 1_555 1_555
C15_2 C13_2 1_555 1_555
O18_2 C15_2 1_555 1_555
C16_2 C11_2 1_555 1_555
O19_2 C16_2 1_555 1_555
O20_2 Cu3_2 1_555 1_555
Cu5_2 O14_2 1_555 1_555
Cu12 O21_2 1_555 1_555
N5_2 Cu5_2 1_555 1_555
O21_2 Ca4 1_555 1_555
O22_2 Cu5_2 1_555 1_555
O23_2 Ca4 1_555 1_555
O24_2 Cu1_2 1_555 1_555
C18_2 N5_2 1_555 1_555
C21_2 N5_2 1_555 1_555
H6_2 C21_2 1_555 1_555
C22_2 O23_2 1_555 1_555
C23_2 C21_2 1_555 1_555
O28_2 C23_2 1_555 1_555
O30_2 Cu5_2 1_555 1_555
Cu8 O10_2 1_555 1_555
Ca4 O3_2 1_555 1_555
C5_2 C6_2 1_555 1_555
Cu3_2 O11_2 1_555 1_555
Cu3_2 O13_2 1_555 1_555
Cu10 O20_2 1_555 1_555
C9_2 C10_2 1_555 1_555
C13_2 C14_2 1_555 1_555
Cu5_2 O21_2 1_555 1_555
Cu5_2 O23_2 1_555 1_555
Cu12 O30_2 1_555 1_555
O24_2 C22_2 1_555 1_555
C21_2 C22_2 1_555 1_555
O8_2 H9_2 1_555 1_555
C7_2 H10_2 1_555 1_555
C7_2 H11_2 1_555 1_555
C15_2 H13_2 1_555 1_555
C15_2 H14_2 1_555 1_555
C16_2 H15_2 1_555 1_555
C16_2 H16_2 1_555 1_555
O19_2 H17_2 1_555 1_555
O18_2 H18_2 1_555 1_555
C23_2 H21_2 1_555 1_555
C23_2 H22_2 1_555 1_555
O28_2 H24_2 1_555 1_555
N9 C17_2 1_555 1_555
O36 C20_2 1_555 1_555
O39 C20_2 1_555 1_555
C19_2 N9 1_555 1_555
H5_2 C19_2 1_555 1_555
C20_2 C19_2 1_555 1_555
C24_2 C19_2 1_555 1_555
O29_2 C24_2 1_555 1_555
C24_2 H19_2 1_555 1_555
C24_2 H20_2 1_555 1_555
O29_2 H23_2 1_555 1_555

#END
