
###############################################################################
#
# This file contains modified crystal structure data generated from the
# MOF subset of the Cambridge Structural Database (CSD) v543 
# hosted by the Cambridge Crystallographic Data Centre (CCDC).
#
# This work is licensed under the Creative Commons
# Attribution-NonCommercial-ShareAlike 4.0 International License.
# To view a copy of this license, visit
# http://creativecommons.org/licenses/by-nc-sa/4.0/
# or send a letter to
# Creative Commons, PO Box 1866, Mountain View, CA 94042, USA.
#
# CIF created using the CSD Python API on 29 September 2022
# The structure has been converted into the P1 space group
# The structure has a 3D framework
# The original CSD entry ZUQNEH is in the hexagonal crystal system
# The original CSD entry ZUQNEH is in a Sohncke space group
# The framework has been calculated to contain at least 10.0% void space
# The void calculation uses a probe of radius 1.32A, grid spacing 0.4
# H atom positions have been added when not included in the experimental data
#
###############################################################################

data_ZUQNEH
_chemical_formula_moiety         '(C48 H48 Ca2 Cu12 N12 O52)n'
_symmetry_cell_setting           triclinic
_symmetry_space_group_name_H-M   'P 1'
_symmetry_Int_Tables_number      1
_space_group_name_Hall           'P 1'
loop_
_symmetry_equiv_pos_site_id
_symmetry_equiv_pos_as_xyz
1 x,y,z
_cell_length_a                   17.9667(15)
_cell_length_b                   17.9667(15)
_cell_length_c                   12.6886(12)
_cell_angle_alpha                90
_cell_angle_beta                 90
_cell_angle_gamma                120
_cell_volume                     3547.16
loop_
_atom_site_label
_atom_site_type_symbol
_atom_site_fract_x
_atom_site_fract_y
_atom_site_fract_z
O1 O 0.4458(6) 0.0215(5) 0.0560(8)
O5 O 0.6752(5) 0.2389(5) 0.0597(8)
Cu8 Cu 0.55374(8) 0.13840(8) 0.06854(12)
Cu10 Cu 0.86160(8) 0.41534(11) 0.06854(12)
Ca4 Ca 0.666667 0.333333 0.1998(5)
O6 O 0.7981(6) 0.2902(9) 0.9719(9)
N2 N 0.5902(8) 0.0986(7) 0.9484(9)
C1 C 0.5396(9) 0.0210(9) 0.9197(13)
C3 C 0.6794(11) 0.1557(10) 0.9085(14)
C4 C 0.7203(9) 0.2341(9) 0.9840(12)
O9 O 0.6282(14) 0.2272(14) 0.7757(15)
C8 C 0.6774(11) 0.1876(11) 0.8008(12)
H4 H 0.654683 0.132324 0.748618
H5 H 0.743728 0.234418 0.781393
H6 H 0.715936 0.122271 0.908994
H8 H 0.647698 0.279424 0.819696
O21 O 0.5757(8) 0.5542(6) 0.0560(8)
O25 O 0.5637(7) 0.3248(5) 0.0597(8)
Cu12 Cu 0.58466(11) 0.44626(8) 0.06854(12)
H1 H 0.27778 0.942369 0.0178771
H7 H 0.317853 0.828301 0.0653439
H10 H 0.510448 0.682147 0.0653439
H12 H 0.0576313 0.335411 0.0178771
H20 H 0.171699 0.489552 0.0653439
H21 H 0.664589 0.72222 0.0178771
Cu1 Cu 0.44123(9) 0.86271(9) 0.82921(12)
Cu2 Cu 0.44626(8) 0.86160(8) 0.56854(12)
Ca1 Ca 0.333333 0.666667 0.6998(5)
O2 O 0.5511(6) 0.9794(5) 0.8441(9)
O3 O 0.2011(7) 0.7031(11) 0.9353(9)
O4 O 0.3219(5) 0.7606(5) 0.8344(9)
O7 O 0.4634(3) 0.8203(3) 0.6998(9)
N1 N 0.3990(8) 0.9026(8) 0.9437(11)
C2 C 0.4546(9) 0.9791(8) 0.9820(12)
C5 C 0.2744(10) 0.7621(10) 0.9104(14)
C6 C 0.3155(10) 0.8448(10) 0.9833(13)
C7 C 0.2534(12) 0.8856(13) 0.968(3)
O8 O 0.2470(13) 0.9111(13) 0.860(3)
O10 O 0.3816(12) 0.9425(12) 0.693(2)
Cu3 Cu 0.13729(9) 0.57852(13) 0.82921(12)
Cu4 Cu 0.13840(8) 0.58466(11) 0.56854(12)
O12 O 0.0206(5) 0.5717(8) 0.8441(9)
O13 O 0.2969(11) 0.4980(13) 0.9353(9)
O14 O 0.2394(5) 0.5613(7) 0.8344(9)
O17 O 0.1797(3) 0.6431(4) 0.6998(9)
N3 N 0.0974(8) 0.4964(11) 0.9437(11)
C10 C 0.0209(8) 0.4755(12) 0.9820(12)
C13 C 0.2379(10) 0.5123(14) 0.9104(14)
C14 C 0.1552(10) 0.4707(14) 0.9833(13)
C15 C 0.1144(13) 0.3678(18) 0.968(3)
O18 O 0.0889(13) 0.3359(18) 0.860(3)
O20 O 0.0575(12) 0.4391(17) 0.693(2)
Cu5 Cu 0.42148(13) 0.55877(9) 0.82921(12)
Cu6 Cu 0.41534(11) 0.55374(8) 0.56854(12)
O22 O 0.4283(8) 0.4489(6) 0.8441(9)
O23 O 0.5020(13) 0.7989(7) 0.9353(9)
O24 O 0.4387(7) 0.6781(5) 0.8344(9)
O26 O 0.4921(11) 0.2019(6) 0.9719(9)
O27 O 0.3569(4) 0.5366(3) 0.6998(9)
N5 N 0.5036(11) 0.6010(8) 0.9437(11)
N6 N 0.5084(11) 0.4098(8) 0.9484(9)
C17 C 0.4814(13) 0.4604(9) 0.9197(13)
C18 C 0.5245(12) 0.5454(9) 0.9820(12)
C19 C 0.4763(15) 0.3206(11) 0.9085(14)
C20 C 0.5138(13) 0.2797(9) 0.9840(12)
C21 C 0.4877(14) 0.7256(10) 0.9104(14)
C22 C 0.5293(14) 0.6845(10) 0.9833(13)
C23 C 0.6322(18) 0.7466(12) 0.968(3)
O28 O 0.6641(18) 0.7530(13) 0.860(3)
O29 O 0.5990(20) 0.3718(14) 0.7757(15)
C24 C 0.5102(16) 0.3226(11) 0.8008(12)
O30 O 0.5609(17) 0.6184(12) 0.693(2)
O31 O 0.5542(6) 0.9785(5) 0.5560(8)
O32 O 0.0215(5) 0.5757(8) 0.5560(8)
O33 O 0.4243(8) 0.4458(6) 0.5560(8)
O34 O 0.3248(5) 0.7611(5) 0.5597(8)
O35 O 0.2389(5) 0.5637(7) 0.5597(8)
O36 O 0.4363(7) 0.6752(5) 0.5597(8)
O37 O 0.2019(6) 0.7098(9) 0.4719(9)
O38 O 0.2902(9) 0.4921(11) 0.4719(9)
O39 O 0.5079(11) 0.7981(6) 0.4719(9)
N7 N 0.4098(8) 0.9014(7) 0.4484(9)
N8 N 0.0986(7) 0.5084(11) 0.4484(9)
N9 N 0.4916(11) 0.5902(8) 0.4484(9)
H2 H 0.189081 0.837963 0.993783
H3 H 0.223979 0.860105 0.813077
H11 H 0.406335 0.284064 0.908994
H13 H 0.162037 0.351117 0.993783
H15 H 0.631726 0.352302 0.819696
H16 H 0.139895 0.363874 0.813077
H17 H 0.636126 0.776021 0.813077
H22 H 0.648883 0.810919 0.993783
H23 H 0.477641 0.345317 0.748618
H24 H 0.49069 0.256272 0.781393
O11 O 0.9785(5) 0.4243(8) 0.0560(8)
O15 O 0.7611(5) 0.4363(7) 0.0597(8)
O16 O 0.7098(9) 0.5079(11) 0.9719(9)
N4 N 0.9014(7) 0.4916(11) 0.9484(9)
C9 C 0.9790(9) 0.5186(13) 0.9197(13)
C11 C 0.8443(10) 0.5237(15) 0.9085(14)
C12 C 0.7659(9) 0.4862(13) 0.9840(12)
O19 O 0.7728(14) 0.4010(20) 0.7757(15)
C16 C 0.8124(11) 0.4898(16) 0.8008(12)
H9 H 0.877729 0.593665 0.908994
H14 H 0.720576 0.368274 0.819696
H18 H 0.867676 0.522359 0.748618
H19 H 0.765582 0.50931 0.781393
C9_2 C 0.0210(9) 0.4814(13) 0.4197(13)
C11_2 C 0.1557(10) 0.4763(15) 0.4085(14)
C12_2 C 0.2341(9) 0.5138(13) 0.4840(12)
O19_2 O 0.2272(14) 0.5990(20) 0.2757(15)
C16_2 C 0.1876(11) 0.5102(16) 0.3008(12)
H9_2 H 0.122271 0.406335 0.408994
H14_2 H 0.279424 0.631726 0.319696
H18_2 H 0.132324 0.477641 0.248618
H19_2 H 0.234418 0.49069 0.281393
Cu1_2 Cu 0.55877(9) 0.13729(9) 0.32921(12)
O2_2 O 0.4489(6) 0.0206(5) 0.3441(9)
O3_2 O 0.7989(7) 0.2969(11) 0.4353(9)
O4_2 O 0.6781(5) 0.2394(5) 0.3344(9)
O7_2 O 0.5366(3) 0.1797(3) 0.1998(9)
N1_2 N 0.6010(8) 0.0974(8) 0.4437(11)
C2_2 C 0.5454(9) 0.0209(8) 0.4820(12)
C5_2 C 0.7256(10) 0.2379(10) 0.4104(14)
C6_2 C 0.6845(10) 0.1552(10) 0.4833(13)
C7_2 C 0.7466(12) 0.1144(13) 0.468(3)
O8_2 O 0.7530(13) 0.0889(13) 0.360(3)
O10_2 O 0.6184(12) 0.0575(12) 0.193(2)
Cu3_2 Cu 0.86271(9) 0.42148(13) 0.32921(12)
O12_2 O 0.9794(5) 0.4283(8) 0.3441(9)
O13_2 O 0.7031(11) 0.5020(13) 0.4353(9)
O14_2 O 0.7606(5) 0.4387(7) 0.3344(9)
O17_2 O 0.8203(3) 0.3569(4) 0.1998(9)
N3_2 N 0.9026(8) 0.5036(11) 0.4437(11)
C10_2 C 0.9791(8) 0.5245(12) 0.4820(12)
C13_2 C 0.7621(10) 0.4877(14) 0.4104(14)
C14_2 C 0.8448(10) 0.5293(14) 0.4833(13)
C15_2 C 0.8856(13) 0.6322(18) 0.468(3)
O18_2 O 0.9111(13) 0.6641(18) 0.360(3)
O20_2 O 0.9425(12) 0.5609(17) 0.193(2)
Cu5_2 Cu 0.57852(13) 0.44123(9) 0.32921(12)
O22_2 O 0.5717(8) 0.5511(6) 0.3441(9)
O23_2 O 0.4980(13) 0.2011(7) 0.4353(9)
O24_2 O 0.5613(7) 0.3219(5) 0.3344(9)
O27_2 O 0.6431(4) 0.4634(3) 0.1998(9)
N5_2 N 0.4964(11) 0.3990(8) 0.4437(11)
C17_2 C 0.5186(13) 0.5396(9) 0.4197(13)
C18_2 C 0.4755(12) 0.4546(9) 0.4820(12)
C19_2 C 0.5237(15) 0.6794(11) 0.4085(14)
C20_2 C 0.4862(13) 0.7203(9) 0.4840(12)
C21_2 C 0.5123(14) 0.2744(10) 0.4104(14)
C22_2 C 0.4707(14) 0.3155(10) 0.4833(13)
C23_2 C 0.3678(18) 0.2534(12) 0.468(3)
O28_2 O 0.3359(18) 0.2470(13) 0.360(3)
O29_2 O 0.4010(20) 0.6282(14) 0.2757(15)
C24_2 C 0.4898(16) 0.6774(11) 0.3008(12)
O30_2 O 0.4391(17) 0.3816(12) 0.193(2)
H1_2 H 0.72222 0.0576313 0.517877
H2_2 H 0.810919 0.162037 0.493783
H3_2 H 0.776021 0.139895 0.313077
H7_2 H 0.682147 0.171699 0.565344
H10_2 H 0.489552 0.317853 0.565344
H11_2 H 0.593665 0.715936 0.408994
H12_2 H 0.942369 0.664589 0.517877
H13_2 H 0.837963 0.648883 0.493783
H15_2 H 0.368274 0.647698 0.319696
H16_2 H 0.860105 0.636126 0.313077
H17_2 H 0.363874 0.223979 0.313077
H20_2 H 0.828301 0.510448 0.565344
H21_2 H 0.335411 0.27778 0.517877
H22_2 H 0.351117 0.189081 0.493783
H23_2 H 0.522359 0.654683 0.248618
H24_2 H 0.50931 0.743728 0.281393
C1_2 C 0.4604(9) 0.9790(9) 0.4197(13)
C3_2 C 0.3206(11) 0.8443(10) 0.4085(14)
C4_2 C 0.2797(9) 0.7659(9) 0.4840(12)
O9_2 O 0.3718(14) 0.7728(14) 0.2757(15)
C8_2 C 0.3226(11) 0.8124(11) 0.3008(12)
H4_2 H 0.345317 0.867676 0.248618
H5_2 H 0.256272 0.765582 0.281393
H6_2 H 0.284064 0.877729 0.408994
H8_2 H 0.352302 0.720576 0.319696
loop_
_geom_bond_atom_site_label_1
_geom_bond_atom_site_label_2
_geom_bond_site_symmetry_1
_geom_bond_site_symmetry_2
Cu8 O1 1_555 1_555
Ca4 O5 1_555 1_555
O5 Cu8 1_555 1_555
O6 C4 1_555 1_555
N2 C1 1_555 1_555
C3 N2 1_555 1_555
C4 C3 1_555 1_555
O9 C8 1_555 1_555
C8 C3 1_555 1_555
C8 H4 1_555 1_555
C8 H5 1_555 1_555
C3 H6 1_555 1_555
O9 H8 1_555 1_555
Cu12 O21 1_555 1_555
Ca4 O25 1_555 1_555
O25 Cu12 1_555 1_555
Cu1 O2 1_555 1_555
Cu2 O7 1_555 1_555
Ca1 O4 1_555 1_555
O3 C5 1_555 1_555
O4 Cu1 1_555 1_555
O7 Cu1 1_555 1_555
N1 Cu1 1_555 1_555
C2 N1 1_555 1_555
C5 O4 1_555 1_555
C6 N1 1_555 1_555
C7 C6 1_555 1_555
O8 C7 1_555 1_555
O10 Cu1 1_555 1_555
Cu3 O3 1_555 1_555
Cu4 O17 1_555 1_555
O12 Cu3 1_555 1_555
O13 C13 1_555 1_555
O14 Ca1 1_555 1_555
O17 Ca1 1_555 1_555
N3 Cu3 1_555 1_555
C10 N3 1_555 1_555
C13 O14 1_555 1_555
C14 N3 1_555 1_555
C15 C14 1_555 1_555
O18 C15 1_555 1_555
O20 Cu3 1_555 1_555
Cu5 O13 1_555 1_555
Cu6 O27 1_555 1_555
O22 Cu5 1_555 1_555
O23 Cu1 1_555 1_555
O24 Ca1 1_555 1_555
O26 C20 1_555 1_555
O27 Ca1 1_555 1_555
N5 Cu5 1_555 1_555
N6 C17 1_555 1_555
C17 O22 1_555 1_555
C18 N5 1_555 1_555
C19 N6 1_555 1_555
C20 C19 1_555 1_555
C21 O23 1_555 1_555
C22 N5 1_555 1_555
C23 C22 1_555 1_555
O28 C23 1_555 1_555
O29 C24 1_555 1_555
C24 C19 1_555 1_555
O30 Cu5 1_555 1_555
O31 Cu2 1_555 1_555
O32 Cu4 1_555 1_555
O33 Cu6 1_555 1_555
O34 Cu2 1_555 1_555
O35 Ca1 1_555 1_555
O36 Ca1 1_555 1_555
O37 Cu4 1_555 1_555
O38 Cu6 1_555 1_555
O39 Cu2 1_555 1_555
N7 Cu2 1_555 1_555
N8 Cu4 1_555 1_555
N9 Cu6 1_555 1_555
Cu2 O10 1_555 1_555
Ca1 O7 1_555 1_555
Ca1 O34 1_555 1_555
C5 C6 1_555 1_555
Cu3 O14 1_555 1_555
Cu3 O17 1_555 1_555
Cu4 O20 1_555 1_555
Cu4 O35 1_555 1_555
C13 C14 1_555 1_555
Cu5 O24 1_555 1_555
Cu5 O27 1_555 1_555
Cu6 O30 1_555 1_555
Cu6 O36 1_555 1_555
O24 C21 1_555 1_555
C17 C18 1_555 1_555
C21 C22 1_555 1_555
C7 H2 1_555 1_555
O8 H3 1_555 1_555
C19 H11 1_555 1_555
C15 H13 1_555 1_555
O29 H15 1_555 1_555
O18 H16 1_555 1_555
O28 H17 1_555 1_555
C23 H22 1_555 1_555
C24 H23 1_555 1_555
C24 H24 1_555 1_555
Cu10 O11 1_555 1_555
Ca4 O15 1_555 1_555
O15 Cu10 1_555 1_555
O16 C12 1_555 1_555
N4 C9 1_555 1_555
C11 N4 1_555 1_555
C12 C11 1_555 1_555
O19 C16 1_555 1_555
C16 C11 1_555 1_555
C11 H9 1_555 1_555
O19 H14 1_555 1_555
C16 H18 1_555 1_555
C16 H19 1_555 1_555
O35 C12_2 1_555 1_555
O38 C12_2 1_555 1_555
N8 C9_2 1_555 1_555
C11_2 N8 1_555 1_555
C12_2 C11_2 1_555 1_555
O19_2 C16_2 1_555 1_555
C16_2 C11_2 1_555 1_555
C11_2 H9_2 1_555 1_555
O19_2 H14_2 1_555 1_555
C16_2 H18_2 1_555 1_555
C16_2 H19_2 1_555 1_555
Cu1_2 O2_2 1_555 1_555
Cu8 O7_2 1_555 1_555
Ca4 O4_2 1_555 1_555
O3_2 C5_2 1_555 1_555
O4_2 Cu1_2 1_555 1_555
O7_2 Cu1_2 1_555 1_555
N1_2 Cu1_2 1_555 1_555
C2_2 N1_2 1_555 1_555
C5_2 O4_2 1_555 1_555
C6_2 N1_2 1_555 1_555
C7_2 C6_2 1_555 1_555
O8_2 C7_2 1_555 1_555
O10_2 Cu1_2 1_555 1_555
Cu3_2 O3_2 1_555 1_555
Cu10 O17_2 1_555 1_555
O12_2 Cu3_2 1_555 1_555
O13_2 C13_2 1_555 1_555
O14_2 Ca4 1_555 1_555
O17_2 Ca4 1_555 1_555
N3_2 Cu3_2 1_555 1_555
C10_2 N3_2 1_555 1_555
C13_2 O14_2 1_555 1_555
C14_2 N3_2 1_555 1_555
C15_2 C14_2 1_555 1_555
O18_2 C15_2 1_555 1_555
O20_2 Cu3_2 1_555 1_555
Cu5_2 O13_2 1_555 1_555
Cu12 O27_2 1_555 1_555
O33 C18_2 1_555 1_555
O22_2 Cu5_2 1_555 1_555
O23_2 Cu1_2 1_555 1_555
O24_2 Ca4 1_555 1_555
O36 C20_2 1_555 1_555
O39 C20_2 1_555 1_555
O27_2 Ca4 1_555 1_555
N5_2 Cu5_2 1_555 1_555
N9 C17_2 1_555 1_555
C17_2 O22_2 1_555 1_555
C18_2 N5_2 1_555 1_555
C19_2 N9 1_555 1_555
C20_2 C19_2 1_555 1_555
C21_2 O23_2 1_555 1_555
C22_2 N5_2 1_555 1_555
C23_2 C22_2 1_555 1_555
O28_2 C23_2 1_555 1_555
O29_2 C24_2 1_555 1_555
C24_2 C19_2 1_555 1_555
O30_2 Cu5_2 1_555 1_555
Cu8 O10_2 1_555 1_555
Ca4 O7_2 1_555 1_555
C5_2 C6_2 1_555 1_555
Cu3_2 O14_2 1_555 1_555
Cu3_2 O17_2 1_555 1_555
Cu10 O20_2 1_555 1_555
C13_2 C14_2 1_555 1_555
Cu5_2 O24_2 1_555 1_555
Cu5_2 O27_2 1_555 1_555
Cu12 O30_2 1_555 1_555
O24_2 C21_2 1_555 1_555
C17_2 C18_2 1_555 1_555
C21_2 C22_2 1_555 1_555
C7_2 H1_2 1_555 1_555
C7_2 H2_2 1_555 1_555
O8_2 H3_2 1_555 1_555
C6_2 H7_2 1_555 1_555
C22_2 H10_2 1_555 1_555
C19_2 H11_2 1_555 1_555
C15_2 H12_2 1_555 1_555
C15_2 H13_2 1_555 1_555
O29_2 H15_2 1_555 1_555
O18_2 H16_2 1_555 1_555
O28_2 H17_2 1_555 1_555
C14_2 H20_2 1_555 1_555
C23_2 H21_2 1_555 1_555
C23_2 H22_2 1_555 1_555
C24_2 H23_2 1_555 1_555
C24_2 H24_2 1_555 1_555
O34 C4_2 1_555 1_555
O37 C4_2 1_555 1_555
N7 C1_2 1_555 1_555
C3_2 N7 1_555 1_555
C4_2 C3_2 1_555 1_555
O9_2 C8_2 1_555 1_555
C8_2 C3_2 1_555 1_555
C8_2 H4_2 1_555 1_555
C8_2 H5_2 1_555 1_555
C3_2 H6_2 1_555 1_555
O9_2 H8_2 1_555 1_555

#END
