
###############################################################################
#
# This file contains modified crystal structure data generated from the
# MOF subset of the Cambridge Structural Database (CSD) v543 
# hosted by the Cambridge Crystallographic Data Centre (CCDC).
#
# This work is licensed under the Creative Commons
# Attribution-NonCommercial-ShareAlike 4.0 International License.
# To view a copy of this license, visit
# http://creativecommons.org/licenses/by-nc-sa/4.0/
# or send a letter to
# Creative Commons, PO Box 1866, Mountain View, CA 94042, USA.
#
# CIF created using the CSD Python API on 29 September 2022
# The structure has been converted into the P1 space group
# The structure has a 3D framework
# The original CSD entry ZUQPOQ is in the orthorhombic crystal system
# The original CSD entry ZUQPOQ is in a Sohncke space group
# The framework has been calculated to contain at least 10.0% void space
# The void calculation uses a probe of radius 1.32A, grid spacing 0.4
#
###############################################################################

data_ZUQPOQ
_chemical_formula_moiety         '(C64 H64 Ag4 N4 O11 S8)n'
_symmetry_cell_setting           triclinic
_symmetry_space_group_name_H-M   'P 1'
_symmetry_Int_Tables_number      1
_space_group_name_Hall           'P 1'
loop_
_symmetry_equiv_pos_site_id
_symmetry_equiv_pos_as_xyz
1 x,y,z
_cell_length_a                   11.071(5)
_cell_length_b                   21.824(2)
_cell_length_c                   7.953(2)
_cell_angle_alpha                90
_cell_angle_beta                 90
_cell_angle_gamma                90
_cell_volume                     1921.55
loop_
_atom_site_label
_atom_site_type_symbol
_atom_site_fract_x
_atom_site_fract_y
_atom_site_fract_z
Ag1 Ag 0.13041(6) 0.00273(3) 0.02660(7)
O2 O 0.1040(8) 0.0041(6) 0.5546(7)
O3 O 0.0010(8) 0.0111(9) 0.3285(10)
N1 N 0.0941(7) 0.0037(7) 0.4023(9)
C1 C 0.0153(9) 0.1563(6) 0.054(1)
C3 C 0.0032(9) 0.2710(3) 0.027(2)
H2 H 0.0842 0.1635 0.1189
H3 H 0.0585 0.2751 0.1053
S1 S 0.0509(2) 0.09898(9) 0.8939(4)
C9 C 0.1745(9) 0.1305(4) 0.771(2)
C10 C 0.137(1) 0.1867(3) 0.671(1)
C11 C 0.1860(10) 0.2429(4) 0.709(1)
C12 C 0.143(1) 0.2948(4) 0.628(2)
C13 C 0.0504(9) 0.2918(4) 0.512(2)
C14 C 0.0086(9) 0.2344(4) 0.472(2)
C15 C 0.0516(9) 0.1826(4) 0.545(2)
H9 H 0.2297 0.0873 0.7261
H10 H 0.2342 0.1338 0.8541
H11 H 0.2452 0.2466 0.7985
H12 H 0.1795 0.327 0.6549
H14 H 0.0238 0.1426 0.5213
H15 H 0.0326 0.3645 0.3549
O4 O 0.3174(5) 0.0027(5) 0.8158(7)
O1 O 0.1826(5) 0.9973(5) 0.3158(7)
Ag2 Ag 0.36959(6) 0.99727(3) 0.52660(7)
S2 S 0.9583(2) 0.40660(9) 0.6026(4)
C2 C 0.9581(8) 0.2137(3) 0.984(2)
C4 C 0.9577(9) 0.3235(3) 0.951(2)
C5 C 0.868(1) 0.3197(4) 0.826(1)
C6 C 0.8200(8) 0.2632(4) 0.793(2)
C7 C 0.862(1) 0.2107(4) 0.870(2)
C8 C 0.8345(10) 0.3749(4) 0.724(2)
C16 C 0.9880(10) 0.3489(3) 0.445(2)
H4 H 0.9917 0.3635 0.9938
H5 H 0.7506 0.2618 0.7219
H6 H 0.8251 0.1705 0.8462
H7 H 0.7580 0.3745 0.6521
H8 H 0.8254 0.4167 0.8116
H13 H 0.9424 0.2307 0.3797
H16 H 0.9092 0.3346 0.3977
Ag3 Ag 0.86959(6) 0.50273(3) 0.47340(7)
S3 S 0.4583(2) 0.09340(9) 0.3974(4)
S1_2 S 0.4491(2) 0.90102(9) 0.3939(4)
S2_2 S 0.5417(2) 0.59340(9) 0.1026(4)
O3_2 O 0.4990(8) 0.9889(9) 0.8285(10)
N1_2 N 0.4059(7) 0.9963(7) 0.9023(9)
C1_2 C 0.4847(9) 0.8437(6) 0.554(1)
C2_2 C 0.5419(8) 0.7863(3) 0.484(2)
C3_2 C 0.4968(9) 0.7290(3) 0.527(2)
C4_2 C 0.5423(9) 0.6765(3) 0.451(2)
C5_2 C 0.632(1) 0.6803(4) 0.326(1)
C6_2 C 0.6800(8) 0.7368(4) 0.293(2)
C7_2 C 0.638(1) 0.7893(4) 0.370(2)
C8_2 C 0.6655(10) 0.6251(4) 0.224(2)
C9_2 C 0.3255(9) 0.8695(4) 0.271(2)
C10_2 C 0.363(1) 0.8133(3) 0.171(1)
C11_2 C 0.3140(10) 0.7571(4) 0.209(1)
C12_2 C 0.357(1) 0.7052(4) 0.128(2)
C13_2 C 0.4496(9) 0.7082(4) 0.012(2)
C15_2 C 0.4484(9) 0.8174(4) 0.045(2)
H1 H 0.5448 0.8639 0.6304
H2_2 H 0.4158 0.8365 0.6189
H3_2 H 0.4415 0.7249 0.6053
H4_2 H 0.5083 0.6365 0.4938
H5_2 H 0.7494 0.7382 0.2219
H6_2 H 0.6749 0.8295 0.3462
H7_2 H 0.7420 0.6255 0.1521
H8_2 H 0.6746 0.5833 0.3116
H9_2 H 0.2703 0.9127 0.2261
H10_2 H 0.2658 0.8662 0.3541
H11_2 H 0.2548 0.7534 0.2985
H12_2 H 0.3205 0.673 0.1549
H14_2 H 0.4762 0.8574 0.0213
C14_2 C 0.4914(9) 0.7656(4) 0.972(2)
C16_2 C 0.5120(10) 0.6511(3) 0.945(2)
H13_2 H 0.5576 0.7693 0.8797
H15_2 H 0.4674 0.6355 0.8549
H16_2 H 0.5908 0.6654 0.8977
Ag3_2 Ag 0.63041(6) 0.49727(3) 0.97340(7)
S1_3 S 0.5509(2) 0.40102(9) 0.1061(4)
C2_3 C 0.4581(8) 0.2863(3) 0.016(2)
C4_3 C 0.4577(9) 0.1765(3) 0.049(2)
C5_3 C 0.368(1) 0.1803(4) 0.174(1)
C6_3 C 0.3200(8) 0.2368(4) 0.207(2)
C7_3 C 0.362(1) 0.2893(4) 0.130(2)
C8_3 C 0.3345(10) 0.1251(4) 0.276(2)
C9_3 C 0.6745(9) 0.3695(4) 0.229(2)
C10_3 C 0.637(1) 0.3133(3) 0.329(1)
C11_3 C 0.6860(10) 0.2571(4) 0.291(1)
C12_3 C 0.643(1) 0.2052(4) 0.372(2)
C13_3 C 0.5504(9) 0.2082(4) 0.488(2)
C14_3 C 0.5086(9) 0.2656(4) 0.528(2)
C15_3 C 0.5516(9) 0.3174(4) 0.455(2)
C16_3 C 0.4880(10) 0.1511(3) 0.555(2)
H4_3 H 0.4917 0.1365 0.0062
H5_3 H 0.2506 0.2382 0.2781
H6_3 H 0.3251 0.3295 0.1538
H7_3 H 0.2580 0.1255 0.3479
H8_3 H 0.3254 0.0833 0.1884
H9_3 H 0.7297 0.4127 0.2739
H10_3 H 0.7342 0.3662 0.1459
H11_3 H 0.7452 0.2534 0.2015
H12_3 H 0.6795 0.173 0.3451
H13_3 H 0.4424 0.2693 0.6203
H14_3 H 0.5238 0.3574 0.4787
H15_3 H 0.5326 0.1355 0.6451
H16_3 H 0.4092 0.1654 0.6023
O4_2 O 0.8174(5) 0.4973(5) 0.1842(7)
O1_2 O 0.6826(5) 0.5027(5) 0.6842(7)
O2_2 O 0.6040(8) 0.4959(6) 0.4454(7)
O3_3 O 0.5010(8) 0.4889(9) 0.6715(10)
N1_3 N 0.5941(7) 0.4963(7) 0.5977(9)
C1_3 C 0.5153(9) 0.3437(6) 0.946(1)
C3_3 C 0.5032(9) 0.2290(3) 0.973(2)
H1_2 H 0.4552 0.3639 0.8696
H2_3 H 0.5842 0.3365 0.8811
H3_3 H 0.5585 0.2249 0.8947
S1_4 S 0.9491(2) 0.59898(9) 0.6061(4)
O3_4 O 0.9990(8) 0.5111(9) 0.1715(10)
N1_4 N 0.9059(7) 0.5037(7) 0.0977(9)
C1_4 C 0.9847(9) 0.6563(6) 0.446(1)
C3_4 C 0.9968(9) 0.7710(3) 0.473(2)
C9_4 C 0.8255(9) 0.6305(4) 0.729(2)
C10_4 C 0.863(1) 0.6867(3) 0.829(1)
C11_4 C 0.8140(10) 0.7429(4) 0.791(1)
C12_4 C 0.857(1) 0.7948(4) 0.872(2)
C13_4 C 0.9496(9) 0.7918(4) 0.988(2)
C15_4 C 0.9484(9) 0.6826(4) 0.955(2)
H2_4 H 0.9158 0.6635 0.3811
H3_4 H 0.9415 0.7751 0.3947
H9_4 H 0.7703 0.5873 0.7739
H10_4 H 0.7658 0.6338 0.6459
H11_4 H 0.7548 0.7466 0.7015
H12_4 H 0.8205 0.827 0.8451
H14_4 H 0.9762 0.6426 0.9787
O2_3 O 0.8960(8) 0.5041(6) 0.9454(7)
S3_2 S 0.0417(2) 0.90660(9) 0.8974(4)
C2_4 C 0.0419(8) 0.7137(3) 0.516(2)
C4_4 C 0.0423(9) 0.8235(3) 0.549(2)
C5_4 C 0.132(1) 0.8197(4) 0.674(1)
C6_4 C 0.1800(8) 0.7632(4) 0.707(2)
C7_4 C 0.138(1) 0.7107(4) 0.630(2)
C8_4 C 0.1655(10) 0.8749(4) 0.776(2)
H1_3 H 0.0448 0.6361 0.3696
H4_4 H 0.0083 0.8635 0.5062
H5_4 H 0.2494 0.7618 0.7781
H6_4 H 0.1749 0.6705 0.6538
H7_4 H 0.2420 0.8745 0.8479
H8_4 H 0.1746 0.9167 0.6884
H1_4 H 0.9552 0.1361 0.1304
O2_4 O 0.3960(8) 0.9959(6) 0.0546(7)
C16_4 C 0.0120(10) 0.8489(3) 0.055(2)
H13_4 H 0.0576 0.7307 0.1203
H16_4 H 0.0908 0.8346 0.1023
C14_4 C 0.9914(9) 0.7344(4) 0.028(2)
H15_4 H 0.9674 0.8645 0.1451
loop_
_geom_bond_atom_site_label_1
_geom_bond_atom_site_label_2
_geom_bond_site_symmetry_1
_geom_bond_site_symmetry_2
O2 N1 1_555 1_555
O3 N1 1_555 1_555
H2 C1 1_555 1_555
H3 C3 1_555 1_555
C9 S1 1_555 1_555
C10 C9 1_555 1_555
C11 C10 1_555 1_555
C12 C11 1_555 1_555
C13 C12 1_555 1_555
C14 C13 1_555 1_555
C15 C10 1_555 1_555
H9 C9 1_555 1_555
H10 C9 1_555 1_555
H11 C11 1_555 1_555
H12 C12 1_555 1_555
H14 C15 1_555 1_555
C14 C15 1_555 1_555
Ag2 O1 1_555 1_555
S2 C8 1_555 1_555
C4 C5 1_555 1_555
C5 C6 1_555 1_555
C6 C7 1_555 1_555
C7 C2 1_555 1_555
C8 C5 1_555 1_555
C16 S2 1_555 1_555
H4 C4 1_555 1_555
H5 C6 1_555 1_555
H6 C7 1_555 1_555
H7 C8 1_555 1_555
H8 C8 1_555 1_555
H16 C16 1_555 1_555
Ag3 S2 1_555 1_555
Ag2 S1_2 1_555 1_555
S1_2 C1_2 1_555 1_555
S2_2 C8_2 1_555 1_555
O3_2 N1_2 1_555 1_555
C1_2 C2_2 1_555 1_555
C2_2 C3_2 1_555 1_555
C3_2 C4_2 1_555 1_555
C4_2 C5_2 1_555 1_555
C5_2 C6_2 1_555 1_555
C6_2 C7_2 1_555 1_555
C7_2 C2_2 1_555 1_555
C8_2 C5_2 1_555 1_555
C9_2 S1_2 1_555 1_555
C10_2 C9_2 1_555 1_555
C11_2 C10_2 1_555 1_555
C12_2 C11_2 1_555 1_555
C13_2 C12_2 1_555 1_555
C15_2 C10_2 1_555 1_555
H1 C1_2 1_555 1_555
H2_2 C1_2 1_555 1_555
H3_2 C3_2 1_555 1_555
H4_2 C4_2 1_555 1_555
H5_2 C6_2 1_555 1_555
H6_2 C7_2 1_555 1_555
H7_2 C8_2 1_555 1_555
H8_2 C8_2 1_555 1_555
H9_2 C9_2 1_555 1_555
H10_2 C9_2 1_555 1_555
H11_2 C11_2 1_555 1_555
H12_2 C12_2 1_555 1_555
H14_2 C15_2 1_555 1_555
H13_2 C14_2 1_555 1_555
H15_2 C16_2 1_555 1_555
H16_2 C16_2 1_555 1_555
S3 C8_3 1_555 1_555
C4_3 C5_3 1_555 1_555
C5_3 C6_3 1_555 1_555
C6_3 C7_3 1_555 1_555
C7_3 C2_3 1_555 1_555
C8_3 C5_3 1_555 1_555
C9_3 S1_3 1_555 1_555
C10_3 C9_3 1_555 1_555
C11_3 C10_3 1_555 1_555
C12_3 C11_3 1_555 1_555
C13_3 C12_3 1_555 1_555
C14_3 C13_3 1_555 1_555
C15_3 C10_3 1_555 1_555
C16_3 S3 1_555 1_555
H4_3 C4_3 1_555 1_555
H5_3 C6_3 1_555 1_555
H6_3 C7_3 1_555 1_555
H7_3 C8_3 1_555 1_555
H8_3 C8_3 1_555 1_555
H9_3 C9_3 1_555 1_555
H10_3 C9_3 1_555 1_555
H11_3 C11_3 1_555 1_555
H12_3 C12_3 1_555 1_555
H13_3 C14_3 1_555 1_555
H14_3 C15_3 1_555 1_555
H15_3 C16_3 1_555 1_555
H16_3 C16_3 1_555 1_555
C13_3 C16_3 1_555 1_555
C14_3 C15_3 1_555 1_555
O1_2 Ag3_2 1_555 1_555
O2_2 N1_3 1_555 1_555
O3_3 N1_3 1_555 1_555
N1_3 O1_2 1_555 1_555
H1_2 C1_3 1_555 1_555
H2_3 C1_3 1_555 1_555
H3_3 C3_3 1_555 1_555
Ag3 O1_2 1_555 1_555
Ag3 S1_4 1_555 1_555
S1_4 C1_4 1_555 1_555
O4_2 Ag3 1_555 1_555
O3_4 N1_4 1_555 1_555
N1_4 O4_2 1_555 1_555
C9_4 S1_4 1_555 1_555
C10_4 C9_4 1_555 1_555
C11_4 C10_4 1_555 1_555
C12_4 C11_4 1_555 1_555
C13_4 C12_4 1_555 1_555
C15_4 C10_4 1_555 1_555
H2_4 C1_4 1_555 1_555
H3_4 C3_4 1_555 1_555
H9_4 C9_4 1_555 1_555
H10_4 C9_4 1_555 1_555
H11_4 C11_4 1_555 1_555
H12_4 C12_4 1_555 1_555
H14_4 C15_4 1_555 1_555
S3_2 C8_4 1_555 1_555
C4_4 C5_4 1_555 1_555
C5_4 C6_4 1_555 1_555
C6_4 C7_4 1_555 1_555
C7_4 C2_4 1_555 1_555
C8_4 C5_4 1_555 1_555
H4_4 C4_4 1_555 1_555
H5_4 C6_4 1_555 1_555
H6_4 C7_4 1_555 1_555
H7_4 C8_4 1_555 1_555
H8_4 C8_4 1_555 1_555
H16_4 C16_4 1_555 1_555

#END
