
###############################################################################
#
# This file contains modified crystal structure data generated from the
# MOF subset of the Cambridge Structural Database (CSD) v543 
# hosted by the Cambridge Crystallographic Data Centre (CCDC).
#
# This work is licensed under the Creative Commons
# Attribution-NonCommercial-ShareAlike 4.0 International License.
# To view a copy of this license, visit
# http://creativecommons.org/licenses/by-nc-sa/4.0/
# or send a letter to
# Creative Commons, PO Box 1866, Mountain View, CA 94042, USA.
#
# CIF created using the CSD Python API on 29 September 2022
# The structure has been converted into the P1 space group
# The structure has a 3D framework
# The original CSD entry ZUQVUC is in the orthorhombic crystal system
# The original CSD entry ZUQVUC is in a Sohncke space group
# The framework has been calculated to contain at least 10.0% void space
# The void calculation uses a probe of radius 1.32A, grid spacing 0.4
#
###############################################################################

data_ZUQVUC
_chemical_formula_moiety         '(C24 Co4 Na4 O24 S24)n'
_symmetry_cell_setting           triclinic
_symmetry_space_group_name_H-M   'P 1'
_symmetry_Int_Tables_number      1
_space_group_name_Hall           'P 1'
loop_
_symmetry_equiv_pos_site_id
_symmetry_equiv_pos_as_xyz
1 x,y,z
_cell_length_a                   16.238(4)
_cell_length_b                   16.225(4)
_cell_length_c                   18.371(5)
_cell_angle_alpha                90
_cell_angle_beta                 90
_cell_angle_gamma                90
_cell_volume                     4840.05
loop_
_atom_site_label
_atom_site_type_symbol
_atom_site_fract_x
_atom_site_fract_y
_atom_site_fract_z
S3 S 0.5591(3) 0.1121(2) 0.0399(2)
C3 C 0.6611(8) 0.1152(7) 0.0791(6)
C4 C 0.7165(11) 0.1164(9) 0.0156(12)
O3 O 0.6735(9) 0.1155(7) 0.1453(5)
O4 O 0.8024(7) 0.1043(9) 0.0556(6)
Na3 Na 0.8261(3) 0.1279(3) 0.1796(2)
S6 S 0.9088(2) 0.0197(2) 0.4124(2)
C6 C 0.8737(8) 0.0423(7) 0.3273(6)
O6 O 0.8556(7) 0.1108(5) 0.3051(5)
O7 O 0.9598(5) 0.1511(5) 0.1379(8)
O8 O 0.8503(5) 0.2733(5) 0.1566(5)
S2 S 0.9482(2) 0.3893(2) 0.1092(2)
C1 C 0.9810(6) 0.2220(7) 0.1194(7)
C2 C 0.9171(7) 0.2939(7) 0.1309(7)
Co1 Co 0.5821(1) 0.1188(1) 0.9192(1)
S1 S 0.5726(2) 0.2562(2) 0.9181(2)
S2_2 S 0.4482(2) 0.1107(2) 0.8908(2)
S4 S 0.7186(2) 0.1333(3) 0.9440(2)
S5 S 0.6209(2) 0.1284(2) 0.8023(1)
C1_2 C 0.4810(6) 0.2780(7) 0.8806(7)
C2_2 C 0.4171(7) 0.2061(7) 0.8691(7)
O1 O 0.4598(5) 0.3489(5) 0.8621(8)
O2 O 0.3503(5) 0.2267(5) 0.8434(5)
C5 C 0.6384(7) 0.0298(6) 0.7735(5)
O5 O 0.6590(6) 0.0128(4) 0.7112(4)
Na1 Na 0.3261(3) 0.3721(3) 0.8204(2)
S6_2 S 0.5912(2) 0.9803(2) 0.9124(2)
C6_2 C 0.6263(8) 0.9577(7) 0.8273(6)
O6_2 O 0.6444(7) 0.8892(5) 0.8051(5)
Na2 Na 0.6739(3) 0.8721(3) 0.6796(2)
O7_2 O 0.5402(5) 0.8489(5) 0.6379(8)
O8_2 O 0.6497(5) 0.7267(5) 0.6566(5)
O9 O 0.8265(9) 0.8845(7) 0.6453(5)
O10 O 0.6976(7) 0.8957(9) 0.5556(6)
S2_3 S 0.0518(2) 0.8893(2) 0.3908(2)
C1_3 C 0.0190(6) 0.7220(7) 0.3806(7)
C2_3 C 0.0829(7) 0.7939(7) 0.3691(7)
O1_2 O 0.0402(5) 0.6511(5) 0.3621(8)
O2_2 O 0.1497(5) 0.7733(5) 0.3434(5)
Na1_2 Na 0.1739(3) 0.6279(3) 0.3204(2)
Co1_2 Co 0.9179(1) 0.8812(1) 0.4192(1)
S1_2 S 0.9274(2) 0.7438(2) 0.4181(2)
S3_2 S 0.9409(3) 0.8879(2) 0.5399(2)
S4_2 S 0.7814(2) 0.8667(3) 0.4440(2)
S5_2 S 0.8791(2) 0.8716(2) 0.3023(1)
C3_2 C 0.8389(8) 0.8848(7) 0.5791(6)
C4_2 C 0.7835(11) 0.8836(9) 0.5156(12)
C5_2 C 0.8616(7) 0.9702(6) 0.2735(5)
O5_2 O 0.8410(6) 0.9872(4) 0.2112(4)
Co1_3 Co 0.0821(1) 0.3812(1) 0.0808(1)
S1_3 S 0.0726(2) 0.2438(2) 0.0819(2)
S4_3 S 0.2186(2) 0.3667(3) 0.0560(2)
S5_3 S 0.1209(2) 0.3716(2) 0.1977(1)
S6_3 S 0.0912(2) 0.5197(2) 0.0876(2)
C5_3 C 0.1384(7) 0.4702(6) 0.2265(5)
C6_3 C 0.1263(8) 0.5423(7) 0.1727(6)
O5_3 O 0.1590(6) 0.4872(4) 0.2888(4)
O6_3 O 0.1444(7) 0.6108(5) 0.1949(5)
O9_2 O 0.3265(9) 0.6155(7) 0.3547(5)
O10_2 O 0.1976(7) 0.6043(9) 0.4444(6)
S3_3 S 0.0591(3) 0.3879(2) 0.9601(2)
C3_3 C 0.1611(8) 0.3848(7) 0.9209(6)
C4_3 C 0.2165(11) 0.3836(9) 0.9844(12)
O3_2 O 0.1735(9) 0.3845(7) 0.8547(5)
O4_2 O 0.3024(7) 0.3957(9) 0.9444(6)
Co1_4 Co 0.4179(1) 0.6188(1) 0.5808(1)
S1_4 S 0.4274(2) 0.7562(2) 0.5819(2)
S2_4 S 0.5518(2) 0.6107(2) 0.6092(2)
S3_4 S 0.4409(3) 0.6121(2) 0.4601(2)
S4_4 S 0.2814(2) 0.6333(3) 0.5560(2)
S5_4 S 0.3791(2) 0.6284(2) 0.6977(1)
S6_4 S 0.4088(2) 0.4803(2) 0.5876(2)
C1_4 C 0.5190(6) 0.7780(7) 0.6194(7)
C2_4 C 0.5829(7) 0.7061(7) 0.6309(7)
C3_4 C 0.3389(8) 0.6152(7) 0.4209(6)
C4_4 C 0.2835(11) 0.6164(9) 0.4844(12)
C5_4 C 0.3616(7) 0.5298(6) 0.7265(5)
C6_4 C 0.3737(8) 0.4577(7) 0.6727(6)
O5_4 O 0.3410(6) 0.5128(4) 0.7888(4)
O6_4 O 0.3556(7) 0.3892(5) 0.6949(5)
loop_
_geom_bond_atom_site_label_1
_geom_bond_atom_site_label_2
_geom_bond_site_symmetry_1
_geom_bond_site_symmetry_2
C3 S3 1_555 1_555
O3 C3 1_555 1_555
O4 C4 1_555 1_555
Na3 O3 1_555 1_555
C3 C4 1_555 1_555
O4 Na3 1_555 1_555
C6 S6 1_555 1_555
O6 C6 1_555 1_555
O7 Na3 1_555 1_555
O8 Na3 1_555 1_555
O6 Na3 1_555 1_555
C1 C2 1_555 1_555
C2 S2 1_555 1_555
O7 C1 1_555 1_555
O8 C2 1_555 1_555
Co1 S1 1_555 1_555
S1 C1_2 1_555 1_555
S2_2 Co1 1_555 1_555
S4 Co1 1_555 1_555
S5 Co1 1_555 1_555
C1_2 C2_2 1_555 1_555
C2_2 S2_2 1_555 1_555
O1 C1_2 1_555 1_555
O2 C2_2 1_555 1_555
C5 S5 1_555 1_555
O5 C5 1_555 1_555
Na1 O1 1_555 1_555
O2 Na1 1_555 1_555
C6_2 S6_2 1_555 1_555
O6_2 C6_2 1_555 1_555
O7_2 Na2 1_555 1_555
O8_2 Na2 1_555 1_555
O9 Na2 1_555 1_555
O10 Na2 1_555 1_555
O6_2 Na2 1_555 1_555
C1_3 C2_3 1_555 1_555
C2_3 S2_3 1_555 1_555
O1_2 C1_3 1_555 1_555
O2_2 C2_3 1_555 1_555
Na1_2 O1_2 1_555 1_555
O2_2 Na1_2 1_555 1_555
Co1_2 S1_2 1_555 1_555
S3_2 Co1_2 1_555 1_555
S4_2 Co1_2 1_555 1_555
S5_2 Co1_2 1_555 1_555
C3_2 S3_2 1_555 1_555
C4_2 S4_2 1_555 1_555
O9 C3_2 1_555 1_555
O10 C4_2 1_555 1_555
C5_2 S5_2 1_555 1_555
O5_2 C5_2 1_555 1_555
C3_2 C4_2 1_555 1_555
Co1_3 S1_3 1_555 1_555
S4_3 Co1_3 1_555 1_555
S5_3 Co1_3 1_555 1_555
S6_3 Co1_3 1_555 1_555
C5_3 S5_3 1_555 1_555
C6_3 S6_3 1_555 1_555
O5_3 C5_3 1_555 1_555
O6_3 C6_3 1_555 1_555
Na1_2 O5_3 1_555 1_555
O9_2 Na1_2 1_555 1_555
O10_2 Na1_2 1_555 1_555
C5_3 C6_3 1_555 1_555
O6_3 Na1_2 1_555 1_555
C3_3 S3_3 1_555 1_555
O3_2 C3_3 1_555 1_555
O4_2 C4_3 1_555 1_555
Na1 O3_2 1_555 1_555
C3_3 C4_3 1_555 1_555
O4_2 Na1 1_555 1_555
Co1_4 S1_4 1_555 1_555
S1_4 C1_4 1_555 1_555
S2_4 Co1_4 1_555 1_555
S3_4 Co1_4 1_555 1_555
S4_4 Co1_4 1_555 1_555
S5_4 Co1_4 1_555 1_555
S6_4 Co1_4 1_555 1_555
C1_4 C2_4 1_555 1_555
C2_4 S2_4 1_555 1_555
O7_2 C1_4 1_555 1_555
O8_2 C2_4 1_555 1_555
C3_4 S3_4 1_555 1_555
C4_4 S4_4 1_555 1_555
O9_2 C3_4 1_555 1_555
O10_2 C4_4 1_555 1_555
C5_4 S5_4 1_555 1_555
C6_4 S6_4 1_555 1_555
O5_4 C5_4 1_555 1_555
O6_4 C6_4 1_555 1_555
Na1 O5_4 1_555 1_555
C3_4 C4_4 1_555 1_555
C5_4 C6_4 1_555 1_555
O6_4 Na1 1_555 1_555

#END
