
###############################################################################
#
# This file contains modified crystal structure data generated from the
# MOF subset of the Cambridge Structural Database (CSD) v543 
# hosted by the Cambridge Crystallographic Data Centre (CCDC).
#
# This work is licensed under the Creative Commons
# Attribution-NonCommercial-ShareAlike 4.0 International License.
# To view a copy of this license, visit
# http://creativecommons.org/licenses/by-nc-sa/4.0/
# or send a letter to
# Creative Commons, PO Box 1866, Mountain View, CA 94042, USA.
#
# CIF created using the CSD Python API on 29 September 2022
# The structure has been converted into the P1 space group
# The structure has a 3D framework
# The original CSD entry ZUQVIQ is in the cubic crystal system
# The original CSD entry ZUQVIQ is in a Sohncke space group
# The framework has been calculated to contain at least 10.0% void space
# The void calculation uses a probe of radius 1.32A, grid spacing 0.4
# The framework is charged, counterions have been retained in the structure
#
###############################################################################

data_ZUQVIQ
_chemical_formula_moiety         '(C24 Mn7 O43 4+)n'
_symmetry_cell_setting           triclinic
_symmetry_space_group_name_H-M   'P 1'
_symmetry_Int_Tables_number      1
_space_group_name_Hall           'P 1'
loop_
_symmetry_equiv_pos_site_id
_symmetry_equiv_pos_as_xyz
1 x,y,z
_cell_length_a                   15.553(3)
_cell_length_b                   15.553(3)
_cell_length_c                   15.553(3)
_cell_angle_alpha                90
_cell_angle_beta                 90
_cell_angle_gamma                90
_cell_volume                     3762.21
loop_
_atom_site_label
_atom_site_type_symbol
_atom_site_fract_x
_atom_site_fract_y
_atom_site_fract_z
O14 O 0.0377(2) 0.3852(2) 0.1065(2)
C6 C 0.0610(2) 0.3110(2) 0.1250
O15 O 0.0126(2) 0.1637(2) 0.1362(2)
Mn4 Mn 0.1508(1) 0.1508(1) 0.1508(1)
O16 O 0.1352(2) 0.2877(2) 0.1435(2)
Mn1 Mn 0.9008(1) 0.4008(1) 0.0992(1)
O1 O 0.8862(2) 0.4137(2) 0.2374(2)
C1 C 0.8750(2) 0.4900 0.2600(2)
O3 O 0.8638(2) 0.5126(2) 0.3363(2)
Mn2 Mn 0.8492(1) 0.6508(1) 0.3492(1)
O4 O 0.9874(2) 0.6637(2) 0.3638(2)
O5 O 0.8648(2) 0.7877(2) 0.3565(2)
O6 O 0.8363(2) 0.6362(2) 0.4874(2)
O7 O 0.7123(2) 0.6435(2) 0.3648(2)
O8 O 0.8565(2) 0.6352(2) 0.2123(2)
C3 C 0.8750 0.5610(2) 0.1890(2)
O9 O 0.8935(2) 0.5377(2) 0.1148(2)
O10 O 0.7626(2) 0.3862(2) 0.0863(2)
C4 C 0.7400(2) 0.3750(2) 0.0100
O11 O 0.9137(2) 0.2626(2) 0.1138(2)
C5 C 0.9900 0.2400(2) 0.1250(2)
O2 O 0.8852(2) 0.3935(2) 0.9623(2)
C2 C 0.8110(2) 0.3750 0.9390(2)
O12 O 0.7877(2) 0.3565(2) 0.8648(2)
Mn3 Mn 0.6508(1) 0.3492(1) 0.8492(1)
O13 O 0.6637(2) 0.3638(2) 0.9874(2)
C5_2 C 0.0100(2) 0.7400 0.3750(2)
O15_2 O 0.0863(2) 0.7626(2) 0.3862(2)
Mn4_2 Mn 0.0992(1) 0.9008(1) 0.4008(1)
C1_2 C 0.7600 0.6250(2) 0.5100(2)
O3_2 O 0.7374(2) 0.6138(2) 0.5863(2)
Mn2_2 Mn 0.5992(1) 0.5992(1) 0.5992(1)
O4_2 O 0.5863(2) 0.7374(2) 0.6138(2)
O5_2 O 0.4623(2) 0.6148(2) 0.6065(2)
O6_2 O 0.6138(2) 0.5863(2) 0.7374(2)
O7_2 O 0.6065(2) 0.4623(2) 0.6148(2)
O8_2 O 0.6148(2) 0.6065(2) 0.4623(2)
C3_2 C 0.6890(2) 0.6250 0.4390(2)
C6_2 C 0.9390(2) 0.8110(2) 0.3750
O16_2 O 0.9623(2) 0.8852(2) 0.3935(2)
O2_2 O 0.3852(2) 0.1065(2) 0.0377(2)
C2_2 C 0.3110(2) 0.1250 0.0610(2)
O12_2 O 0.2877(2) 0.1435(2) 0.1352(2)
O13_2 O 0.1637(2) 0.1362(2) 0.0126(2)
Mn1_2 Mn 0.4008(1) 0.0992(1) 0.9008(1)
O1_2 O 0.3862(2) 0.0863(2) 0.7626(2)
C1_3 C 0.3750(2) 0.0100 0.7400(2)
O10_2 O 0.2626(2) 0.1138(2) 0.9137(2)
C4_2 C 0.2400(2) 0.1250(2) 0.9900
O11_2 O 0.4137(2) 0.2374(2) 0.8862(2)
C5_3 C 0.4900 0.2600(2) 0.8750(2)
O14_2 O 0.5377(2) 0.1148(2) 0.8935(2)
C6_3 C 0.5610(2) 0.1890(2) 0.8750
O15_3 O 0.5126(2) 0.3363(2) 0.8638(2)
O16_3 O 0.6352(2) 0.2123(2) 0.8565(2)
O3_3 O 0.3638(2) 0.9874(2) 0.6637(2)
Mn2_3 Mn 0.3492(1) 0.8492(1) 0.6508(1)
O4_3 O 0.4874(2) 0.8363(2) 0.6362(2)
O5_3 O 0.3648(2) 0.7123(2) 0.6435(2)
O6_3 O 0.3363(2) 0.8638(2) 0.5126(2)
O7_3 O 0.2123(2) 0.8565(2) 0.6352(2)
O8_3 O 0.3565(2) 0.8648(2) 0.7877(2)
C3_3 C 0.3750 0.9390(2) 0.8110(2)
O9_2 O 0.3935(2) 0.9623(2) 0.8852(2)
O14_3 O 0.1065(2) 0.0377(2) 0.3852(2)
C6_4 C 0.1250 0.0610(2) 0.3110(2)
O15_4 O 0.1362(2) 0.0126(2) 0.1637(2)
O16_4 O 0.1435(2) 0.1352(2) 0.2877(2)
O1_3 O 0.2374(2) 0.8862(2) 0.4137(2)
C1_4 C 0.2600(2) 0.8750(2) 0.4900
C3_4 C 0.1890(2) 0.8750 0.5610(2)
O9_3 O 0.1148(2) 0.8935(2) 0.5377(2)
O11_3 O 0.1138(2) 0.9137(2) 0.2626(2)
C5_4 C 0.1250(2) 0.9900 0.2400(2)
C1_5 C 0.6250(2) 0.5100 0.7600(2)
O3_4 O 0.6362(2) 0.4874(2) 0.8363(2)
O8_4 O 0.6435(2) 0.3648(2) 0.7123(2)
C3_5 C 0.6250 0.4390(2) 0.6890(2)
C5_5 C 0.5100 0.7600(2) 0.6250(2)
C6_5 C 0.4390(2) 0.6890(2) 0.6250
loop_
_geom_bond_atom_site_label_1
_geom_bond_atom_site_label_2
_geom_bond_site_symmetry_1
_geom_bond_site_symmetry_2
Mn4 O15 1_555 1_555
O16 C6 1_555 1_555
O14 C6 1_555 1_555
Mn4 O16 1_555 1_555
Mn1 O1 1_555 1_555
O1 C1 1_555 1_555
C1 O3 1_555 1_555
O3 Mn2 1_555 1_555
Mn2 O4 1_555 1_555
O5 Mn2 1_555 1_555
O6 Mn2 1_555 1_555
O7 Mn2 1_555 1_555
O8 Mn2 1_555 1_555
C3 C1 1_555 1_555
O9 Mn1 1_555 1_555
O10 Mn1 1_555 1_555
O11 Mn1 1_555 1_555
C5 O11 1_555 1_555
O8 C3 1_555 1_555
C3 O9 1_555 1_555
O10 C4 1_555 1_555
C2 O2 1_555 1_555
O12 C2 1_555 1_555
Mn3 O12 1_555 1_555
Mn3 O13 1_555 1_555
O15_2 C5_2 1_555 1_555
Mn4_2 O15_2 1_555 1_555
O6 C1_2 1_555 1_555
C1_2 O3_2 1_555 1_555
O3_2 Mn2_2 1_555 1_555
Mn2_2 O4_2 1_555 1_555
O5_2 Mn2_2 1_555 1_555
O6_2 Mn2_2 1_555 1_555
O7_2 Mn2_2 1_555 1_555
O8_2 Mn2_2 1_555 1_555
C3_2 C1_2 1_555 1_555
O16_2 C6_2 1_555 1_555
O8_2 C3_2 1_555 1_555
C3_2 O7 1_555 1_555
O5 C6_2 1_555 1_555
C2_2 O2_2 1_555 1_555
O12_2 C2_2 1_555 1_555
Mn4 O12_2 1_555 1_555
Mn4 O13_2 1_555 1_555
Mn1_2 O1_2 1_555 1_555
O1_2 C1_3 1_555 1_555
O10_2 Mn1_2 1_555 1_555
O11_2 Mn1_2 1_555 1_555
C5_3 O11_2 1_555 1_555
O14_2 Mn1_2 1_555 1_555
C6_3 C5_3 1_555 1_555
O15_3 C5_3 1_555 1_555
Mn3 O15_3 1_555 1_555
O16_3 C6_3 1_555 1_555
O10_2 C4_2 1_555 1_555
O14_2 C6_3 1_555 1_555
Mn3 O16_3 1_555 1_555
O3_3 Mn2_3 1_555 1_555
Mn2_3 O4_3 1_555 1_555
O5_3 Mn2_3 1_555 1_555
O6_3 Mn2_3 1_555 1_555
O7_3 Mn2_3 1_555 1_555
O8_3 Mn2_3 1_555 1_555
O8_3 C3_3 1_555 1_555
C3_3 O9_2 1_555 1_555
Mn4 O15_4 1_555 1_555
O16_4 C6_4 1_555 1_555
O14_3 C6_4 1_555 1_555
Mn4 O16_4 1_555 1_555
Mn4_2 O1_3 1_555 1_555
O1_3 C1_4 1_555 1_555
C1_4 O6_3 1_555 1_555
C3_4 C1_4 1_555 1_555
O9_3 Mn4_2 1_555 1_555
O11_3 Mn4_2 1_555 1_555
C5_4 O11_3 1_555 1_555
O7_3 C3_4 1_555 1_555
C3_4 O9_3 1_555 1_555
O6_2 C1_5 1_555 1_555
C1_5 O3_4 1_555 1_555
O3_4 Mn3 1_555 1_555
O8_4 Mn3 1_555 1_555
C3_5 C1_5 1_555 1_555
C5_5 O4_2 1_555 1_555
C6_5 C5_5 1_555 1_555
O4_3 C5_5 1_555 1_555
O5_3 C6_5 1_555 1_555
O8_4 C3_5 1_555 1_555
C3_5 O7_2 1_555 1_555
O5_2 C6_5 1_555 1_555

#END
