
###############################################################################
#
# This file contains modified crystal structure data generated from the
# MOF subset of the Cambridge Structural Database (CSD) v543 
# hosted by the Cambridge Crystallographic Data Centre (CCDC).
#
# This work is licensed under the Creative Commons
# Attribution-NonCommercial-ShareAlike 4.0 International License.
# To view a copy of this license, visit
# http://creativecommons.org/licenses/by-nc-sa/4.0/
# or send a letter to
# Creative Commons, PO Box 1866, Mountain View, CA 94042, USA.
#
# CIF created using the CSD Python API on 29 September 2022
# The structure has been converted into the P1 space group
# The structure has a 3D framework
# The original CSD entry ZURLAB is in the monoclinic crystal system
# The framework has been calculated to contain at least 10.0% void space
# The void calculation uses a probe of radius 1.32A, grid spacing 0.4
#
###############################################################################

data_ZURLAB
_chemical_formula_moiety         '(C136 H92 Cd8 N24 O40)n'
_symmetry_cell_setting           triclinic
_symmetry_space_group_name_H-M   'P 1'
_symmetry_Int_Tables_number      1
_space_group_name_Hall           'P 1'
loop_
_symmetry_equiv_pos_site_id
_symmetry_equiv_pos_as_xyz
1 x,y,z
_cell_length_a                   10.1318(6)
_cell_length_b                   16.1752(10)
_cell_length_c                   23.1015(14)
_cell_angle_alpha                90
_cell_angle_beta                 93.4110(10)
_cell_angle_gamma                90
_cell_volume                     3779.26
loop_
_atom_site_label
_atom_site_type_symbol
_atom_site_fract_x
_atom_site_fract_y
_atom_site_fract_z
Cd1 Cd 0.68919(3) 0.07902(2) 0.739856(15)
N2 N 0.1153(4) 0.0193(3) 0.77397(18)
N4 N 0.6735(4) 0.0569(3) 0.63949(19)
C2 C 0.0795(5) 0.0572(3) 0.8239(2)
N5 N 0.6700(4) 0.0121(3) 0.3326(2)
O2 O 0.2975(4) 0.0494(2) 0.86470(17)
C3 C 0.0026(5) 0.0113(3) 0.7406(2)
C8 C 0.1817(5) 0.0721(3) 0.8708(2)
C9 C 0.6727(5) 0.0278(3) 0.4541(2)
C10 C 0.6724(5) 0.0372(3) 0.5178(2)
H3 H 0.0086 0.0771 0.6370
C23 C 0.6774(6) 0.0865(3) 0.3586(2)
H12 H 0.6824 0.1334 0.3355
C25 C 0.6778(6) 0.0965(4) 0.4175(2)
H13 H 0.6816 0.1494 0.4333
C26 C 0.6800(6) 0.1218(4) 0.6037(3)
H14 H 0.6855 0.1743 0.6200
C28 C 0.6792(6) 0.1151(4) 0.5447(3)
H16 H 0.6831 0.1625 0.5222
O7 O 0.1452(5) 0.1084(3) 0.91644(19)
Cd6 Cd 0.66722(3) 0.00477(2) 0.229132(15)
N7 N 0.6499(4) 0.2207(2) 0.72635(18)
O11 O 0.4656(3) 0.1077(2) 0.76018(16)
N9 N 0.8968(4) 0.0432(3) 0.76611(18)
O12 O 0.7370(4) 0.1183(3) 0.84217(18)
Cd2 Cd 0.33278(3) 0.99523(2) 0.770868(15)
N1 N 0.3703(4) 0.8580(2) 0.78506(18)
O1 O 0.6994(4) 0.8570(2) 0.73471(19)
N3 N 0.3501(4) 0.7207(2) 0.77365(18)
O3 O 0.5344(3) 0.6077(2) 0.73982(16)
C4 C 0.2915(5) 0.7910(3) 0.7896(2)
C5 C 0.4850(4) 0.8282(3) 0.7653(2)
C7 C 0.5935(5) 0.8855(3) 0.7534(2)
C11 C 0.6667(6) 0.9820(3) 0.6145(2)
H2 H 0.6630 0.9358 0.6383
C14 C 0.6674(6) 0.9466(4) 0.3673(2)
H4 H 0.6653 0.8945 0.3503
C15 C 0.6648(6) 0.9698(4) 0.5555(2)
H5 H 0.6585 0.9165 0.5405
C16 C 0.1598(5) 0.7943(3) 0.8132(2)
C17 C 0.0596(6) 0.7391(4) 0.7935(3)
H6 H 0.0773 0.6995 0.7658
C21 C 0.6675(6) 0.9513(4) 0.4268(2)
H10 H 0.6641 0.9032 0.4487
C22 C 0.1291(6) 0.8520(4) 0.8539(3)
H11 H 0.1940 0.8889 0.8676
C27 C 0.0044(6) 0.8567(4) 0.8751(3)
O6 O 0.6817(4) 0.7058(2) 0.72554(19)
C29 C 0.4729(5) 0.7436(3) 0.7580(2)
C30 C 0.5692(5) 0.6827(3) 0.7393(2)
H17 H 0.0467 0.7610 0.5199
O10 O 0.5748(4) 0.9604(2) 0.76162(17)
Cd4 Cd 0.31081(3) 0.57902(2) 0.760144(15)
Cd5 Cd 0.66722(3) 0.49523(2) 0.729132(15)
N8 N 0.3300(4) 0.9879(3) 0.6674(2)
C12 C 0.9998(6) 0.0201(3) 0.6335(2)
H8 H 0.9980 0.0172 0.5463
C31 C 0.9460(5) 0.0720(3) 0.8185(2)
O8 O 0.9038(5) 0.1340(3) 0.90818(19)
C33 C 0.8545(5) 0.1107(4) 0.8581(2)
H23 H 0.987(2) 0.132(9) 0.905(6)
C1 C 0.0062(5) 0.4722(3) 0.8170(2)
N6 N 0.1032(4) 0.5432(3) 0.73389(18)
C6 C 0.0199(6) 0.3879(3) 0.8231(2)
H1 H 0.0236 0.3552 0.7901
O4 O 0.2630(4) 0.6183(3) 0.65783(18)
C12_2 C 0.0002(6) 0.5201(3) 0.8665(2)
C13 C 0.0215(6) 0.3995(3) 0.9261(2)
C18 C 0.0642(6) 0.2433(4) 0.6854(3)
H7 H 0.1294 0.2061 0.6984
C19 C 0.0070(6) 0.4845(3) 0.9208(2)
H8_2 H 0.0020 0.5172 0.9537
C20 C 0.0285(6) 0.3505(3) 0.8773(2)
H9 H 0.0387 0.2936 0.8807
C24 C 0.0916(7) 0.3017(4) 0.6454(3)
H15 H 0.0144 0.3962 0.5973
O5 O 0.2197(5) 0.3005(4) 0.6281(3)
C31_2 C 0.0540(5) 0.5720(3) 0.6815(2)
C32 C 0.0361(11) 0.2862(5) 0.9923(3)
H19 H 0.1054 0.2625 0.9711
O8_2 O 0.0962(5) 0.6340(3) 0.59182(19)
O9 O 0.0294(5) 0.3713(3) 0.98181(18)
C33_2 C 0.1455(5) 0.6107(4) 0.6419(2)
C34 C 0.2624(9) 0.3663(7) 0.5947(5)
H20 H 0.2103 0.3683 0.5586
H21 H 0.3537 0.3586 0.5872
H22 H 0.2523 0.4172 0.6153
H23_2 H 0.013(2) 0.632(9) 0.595(6)
N5_2 N 0.3300(4) 0.5121(3) 0.1674(2)
C9_2 C 0.3273(5) 0.5278(3) 0.0459(2)
C14_2 C 0.3326(6) 0.4466(4) 0.1327(2)
H4_2 H 0.3347 0.3945 0.1497
C21_2 C 0.3325(6) 0.4513(4) 0.0732(2)
H10_2 H 0.3359 0.4032 0.0513
C23_2 C 0.3226(6) 0.5865(3) 0.1414(2)
H12_2 H 0.3176 0.6334 0.1645
C25_2 C 0.3222(6) 0.5965(4) 0.0825(2)
H13_2 H 0.3184 0.6494 0.0667
Cd6_2 Cd 0.33278(3) 0.50477(2) 0.270868(15)
N1_2 N 0.6297(4) 0.3580(2) 0.71494(18)
N2_2 N 0.8847(4) 0.5193(3) 0.72603(18)
O1_2 O 0.3006(4) 0.3570(2) 0.76529(19)
N4_2 N 0.3265(4) 0.5569(3) 0.86051(19)
C2_2 C 0.9205(5) 0.5572(3) 0.6761(2)
O2_2 O 0.7025(4) 0.5494(2) 0.63530(17)
C3_2 C 0.9974(5) 0.5113(3) 0.7594(2)
C4_2 C 0.7085(5) 0.2910(3) 0.7104(2)
C5_2 C 0.5150(4) 0.3282(3) 0.7347(2)
C7_2 C 0.4065(5) 0.3855(3) 0.7466(2)
C8_2 C 0.8183(5) 0.5721(3) 0.6292(2)
C10_2 C 0.3276(5) 0.5372(3) 0.9822(2)
C11_2 C 0.3333(6) 0.4820(3) 0.8855(2)
H2_2 H 0.3370 0.4358 0.8617
H3_2 H 0.9914 0.5771 0.8630
C15_2 C 0.3352(6) 0.4698(4) 0.9445(2)
H5_2 H 0.3415 0.4165 0.9595
C16_2 C 0.8402(5) 0.2943(3) 0.6868(2)
C17_2 C 0.9404(6) 0.2391(4) 0.7065(3)
H6_2 H 0.9227 0.1995 0.7342
C22_2 C 0.8709(6) 0.3520(4) 0.6461(3)
H11_2 H 0.8060 0.3889 0.6324
C26_2 C 0.3200(6) 0.6218(4) 0.8963(3)
H14_2 H 0.3145 0.6743 0.8800
C27_2 C 0.9956(6) 0.3567(4) 0.6249(3)
C28_2 C 0.3208(6) 0.6151(4) 0.9553(3)
H16_2 H 0.3169 0.6625 0.9778
O6_2 O 0.3183(4) 0.2058(2) 0.77446(19)
C29_2 C 0.5271(5) 0.2436(3) 0.7420(2)
C30_2 C 0.4308(5) 0.1827(3) 0.7607(2)
O7_2 O 0.8548(5) 0.6084(3) 0.58356(19)
H17_2 H 0.9533 0.2610 0.9801
O10_2 O 0.4252(4) 0.4604(2) 0.73838(17)
N8_2 N 0.6700(4) 0.4879(3) 0.8326(2)
N6_2 N 0.1032(4) 0.9568(3) 0.23389(18)
O4_2 O 0.2630(4) 0.8817(3) 0.15783(18)
C12_3 C 0.0002(6) 0.9799(3) 0.3665(2)
H8_3 H 0.0020 0.9828 0.4537
C31_3 C 0.0540(5) 0.9280(3) 0.1815(2)
O8_3 O 0.0962(5) 0.8660(3) 0.09182(19)
C33_3 C 0.1455(5) 0.8893(4) 0.1419(2)
H23_3 H 0.013(2) 0.868(9) 0.095(6)
Cd3 Cd 0.31081(3) 0.92098(2) 0.260144(15)
N1_3 N 0.6297(4) 0.1420(2) 0.21494(18)
O1_3 O 0.3006(4) 0.1430(2) 0.26529(19)
N3_2 N 0.6499(4) 0.2793(2) 0.22635(18)
O3_2 O 0.4656(3) 0.3923(2) 0.26018(16)
C4_3 C 0.7085(5) 0.2090(3) 0.2104(2)
C5_3 C 0.5150(4) 0.1718(3) 0.2347(2)
C7_3 C 0.4065(5) 0.1145(3) 0.2466(2)
C11_3 C 0.3333(6) 0.0180(3) 0.3855(2)
H2_3 H 0.3370 0.0642 0.3617
C14_3 C 0.3326(6) 0.0534(4) 0.6327(2)
H4_3 H 0.3347 0.1055 0.6497
C15_3 C 0.3352(6) 0.0302(4) 0.4445(2)
H5_3 H 0.3415 0.0835 0.4595
C16_3 C 0.8402(5) 0.2057(3) 0.1868(2)
C17_3 C 0.9404(6) 0.2609(4) 0.2065(3)
H6_3 H 0.9227 0.3005 0.2342
C21_3 C 0.3325(6) 0.0487(4) 0.5732(2)
H10_3 H 0.3359 0.0968 0.5513
C22_3 C 0.8709(6) 0.1480(4) 0.1461(3)
H11_3 H 0.8060 0.1111 0.1324
C27_3 C 0.9956(6) 0.1433(4) 0.1249(3)
O6_3 O 0.3183(4) 0.2942(2) 0.27446(19)
C29_3 C 0.5271(5) 0.2564(3) 0.2420(2)
C30_3 C 0.4308(5) 0.3173(3) 0.2607(2)
H17_3 H 0.9533 0.2390 0.4801
O10_3 O 0.4252(4) 0.0396(2) 0.23838(17)
Cd4_2 Cd 0.68919(3) 0.42098(2) 0.239856(15)
N2_3 N 0.8847(4) 0.9807(3) 0.22603(18)
N4_3 N 0.3265(4) 0.9431(3) 0.36051(19)
C2_3 C 0.9205(5) 0.9428(3) 0.1761(2)
O2_3 O 0.7025(4) 0.9506(2) 0.13530(17)
C3_3 C 0.9974(5) 0.9887(3) 0.2594(2)
C8_3 C 0.8183(5) 0.9279(3) 0.1292(2)
C9_3 C 0.3273(5) 0.9722(3) 0.5459(2)
C10_3 C 0.3276(5) 0.9628(3) 0.4822(2)
H3_3 H 0.9914 0.9229 0.3630
C23_3 C 0.3226(6) 0.9135(3) 0.6414(2)
H12_3 H 0.3176 0.8666 0.6645
C25_3 C 0.3222(6) 0.9035(4) 0.5825(2)
H13_3 H 0.3184 0.8506 0.5667
C26_3 C 0.3200(6) 0.8782(4) 0.3963(3)
H14_3 H 0.3145 0.8257 0.3800
C28_3 C 0.3208(6) 0.8849(4) 0.4553(3)
H16_3 H 0.3169 0.8375 0.4778
O7_3 O 0.8548(5) 0.8916(3) 0.08356(19)
N7_2 N 0.3501(4) 0.7793(2) 0.27365(18)
O11_2 O 0.5344(3) 0.8923(2) 0.23982(16)
N1_4 N 0.3703(4) 0.6420(2) 0.28506(18)
N2_4 N 0.1153(4) 0.4807(3) 0.27397(18)
O1_4 O 0.6994(4) 0.6430(2) 0.23471(19)
N4_4 N 0.6735(4) 0.4431(3) 0.13949(19)
C2_4 C 0.0795(5) 0.4428(3) 0.3239(2)
O2_4 O 0.2975(4) 0.4506(2) 0.36470(17)
C3_4 C 0.0026(5) 0.4887(3) 0.2406(2)
C4_4 C 0.2915(5) 0.7090(3) 0.2896(2)
C5_4 C 0.4850(4) 0.6718(3) 0.2653(2)
C7_4 C 0.5935(5) 0.6145(3) 0.2534(2)
C8_4 C 0.1817(5) 0.4279(3) 0.3708(2)
C10_4 C 0.6724(5) 0.4628(3) 0.0178(2)
C11_4 C 0.6667(6) 0.5180(3) 0.1145(2)
H2_4 H 0.6630 0.5642 0.1383
H3_4 H 0.0086 0.4229 0.1370
C15_4 C 0.6648(6) 0.5302(4) 0.0555(2)
H5_4 H 0.6585 0.5835 0.0405
C16_4 C 0.1598(5) 0.7057(3) 0.3132(2)
C17_4 C 0.0596(6) 0.7609(4) 0.2935(3)
H6_4 H 0.0773 0.8005 0.2658
C22_4 C 0.1291(6) 0.6480(4) 0.3539(3)
H11_4 H 0.1940 0.6111 0.3676
C26_4 C 0.6800(6) 0.3782(4) 0.1037(3)
H14_4 H 0.6855 0.3257 0.1200
C27_4 C 0.0044(6) 0.6433(4) 0.3751(3)
C28_4 C 0.6792(6) 0.3849(4) 0.0447(3)
H16_4 H 0.6831 0.3375 0.0222
O6_4 O 0.6817(4) 0.7942(2) 0.22554(19)
C29_4 C 0.4729(5) 0.7564(3) 0.2580(2)
C30_4 C 0.5692(5) 0.8173(3) 0.2393(2)
O7_4 O 0.1452(5) 0.3916(3) 0.41644(19)
H17_4 H 0.0467 0.7390 0.0199
O10_4 O 0.5748(4) 0.5396(2) 0.26162(17)
N9_2 N 0.8968(4) 0.4568(3) 0.26611(18)
O12_2 O 0.7370(4) 0.3817(3) 0.34217(18)
C9_4 C 0.6727(5) 0.4722(3) 0.9541(2)
C14_4 C 0.6674(6) 0.5534(4) 0.8673(2)
H4_4 H 0.6653 0.6055 0.8503
C21_4 C 0.6675(6) 0.5487(4) 0.9268(2)
H10_4 H 0.6641 0.5968 0.9487
C23_4 C 0.6774(6) 0.4135(3) 0.8586(2)
H12_4 H 0.6824 0.3666 0.8355
C25_4 C 0.6778(6) 0.4035(4) 0.9175(2)
H13_4 H 0.6816 0.3506 0.9333
C1_2 C 0.9938(5) 0.5278(3) 0.1830(2)
C6_2 C 0.9801(6) 0.6121(3) 0.1769(2)
H1_2 H 0.9764 0.6448 0.2099
C12_4 C 0.9998(6) 0.4799(3) 0.1335(2)
C13_2 C 0.9785(6) 0.6005(3) 0.0739(2)
C18_2 C 0.9358(6) 0.7567(4) 0.3146(3)
H7_2 H 0.8706 0.7939 0.3016
C19_2 C 0.9930(6) 0.5155(3) 0.0792(2)
H8_4 H 0.9980 0.4828 0.0463
C20_2 C 0.9715(6) 0.6495(3) 0.1227(2)
H9_2 H 0.9613 0.7064 0.1193
C24_2 C 0.9084(7) 0.6983(4) 0.3546(3)
H15_2 H 0.9856 0.6038 0.4027
O5_2 O 0.7803(5) 0.6995(4) 0.3719(3)
C31_4 C 0.9460(5) 0.4280(3) 0.3185(2)
C32_2 C 0.9639(11) 0.7138(5) 0.0077(3)
H19_2 H 0.8946 0.7375 0.0289
O8_4 O 0.9038(5) 0.3660(3) 0.40818(19)
O9_2 O 0.9706(5) 0.6287(3) 0.01819(18)
C33_4 C 0.8545(5) 0.3893(4) 0.3581(2)
C34_2 C 0.7376(9) 0.6337(7) 0.4053(5)
H20_2 H 0.7897 0.6317 0.4414
H21_2 H 0.6463 0.6414 0.4128
H22_2 H 0.7477 0.5828 0.3847
H23_4 H 0.987(2) 0.368(9) 0.405(6)
C1_3 C 0.9938(5) 0.9722(3) 0.6830(2)
C6_3 C 0.9801(6) 0.8879(3) 0.6769(2)
H1_3 H 0.9764 0.8552 0.7099
C13_3 C 0.9785(6) 0.8995(3) 0.5739(2)
C18_3 C 0.9358(6) 0.7433(4) 0.8146(3)
H7_3 H 0.8706 0.7061 0.8016
C19_3 C 0.9930(6) 0.9845(3) 0.5792(2)
C20_3 C 0.9715(6) 0.8505(3) 0.6227(2)
H9_3 H 0.9613 0.7936 0.6193
C24_3 C 0.9084(7) 0.8017(4) 0.8546(3)
H15_3 H 0.9856 0.8962 0.9027
O5_3 O 0.7803(5) 0.8005(4) 0.8719(3)
C32_3 C 0.9639(11) 0.7862(5) 0.5077(3)
H18 H 0.9457 0.7766 0.4670
H19_3 H 0.8946 0.7625 0.5289
O9_3 O 0.9706(5) 0.8713(3) 0.51819(18)
C34_3 C 0.7376(9) 0.8663(7) 0.9053(5)
H20_3 H 0.7897 0.8683 0.9414
H21_3 H 0.6463 0.8586 0.9128
H22_3 H 0.7477 0.9172 0.8847
H18_2 H 0.0543 0.2766 0.0330
C1_4 C 0.0062(5) 0.0278(3) 0.3170(2)
C6_4 C 0.0199(6) 0.1121(3) 0.3231(2)
H1_4 H 0.0236 0.1448 0.2901
C13_4 C 0.0215(6) 0.1005(3) 0.4261(2)
C18_4 C 0.0642(6) 0.2567(4) 0.1854(3)
H7_4 H 0.1294 0.2939 0.1984
C19_4 C 0.0070(6) 0.0155(3) 0.4208(2)
C20_4 C 0.0285(6) 0.1495(3) 0.3773(2)
H9_4 H 0.0387 0.2064 0.3807
C24_4 C 0.0916(7) 0.1983(4) 0.1454(3)
H15_4 H 0.0144 0.1038 0.0973
O5_4 O 0.2197(5) 0.1995(4) 0.1281(3)
C32_4 C 0.0361(11) 0.2138(5) 0.4923(3)
H18_3 H 0.0543 0.2234 0.5330
H19_4 H 0.1054 0.2375 0.4711
O9_4 O 0.0294(5) 0.1287(3) 0.48181(18)
C34_4 C 0.2624(9) 0.1337(7) 0.0947(5)
H20_4 H 0.2103 0.1317 0.0586
H21_4 H 0.3537 0.1414 0.0872
H22_4 H 0.2523 0.0828 0.1153
H18_4 H 0.9457 0.7234 0.9670
loop_
_geom_bond_atom_site_label_1
_geom_bond_atom_site_label_2
_geom_bond_site_symmetry_1
_geom_bond_site_symmetry_2
Cd1 N4 1_555 1_555
C2 N2 1_555 1_555
C3 N2 1_555 1_555
C8 C2 1_555 1_555
C9 C10 1_555 1_555
C23 N5 1_555 1_555
H12 C23 1_555 1_555
C25 C9 1_555 1_555
H13 C25 1_555 1_555
C26 N4 1_555 1_555
H14 C26 1_555 1_555
C28 C10 1_555 1_555
H16 C28 1_555 1_555
O7 C8 1_555 1_555
Cd6 N5 1_555 1_555
N7 Cd1 1_555 1_555
O11 Cd1 1_555 1_555
N9 Cd1 1_555 1_555
O12 Cd1 1_555 1_555
O2 C8 1_555 1_555
C23 C25 1_555 1_555
C26 C28 1_555 1_555
Cd2 N1 1_555 1_555
N1 C4 1_555 1_555
O1 C7 1_555 1_555
N3 C4 1_555 1_555
O3 C30 1_555 1_555
C4 C16 1_555 1_555
C5 N1 1_555 1_555
C7 C5 1_555 1_555
C11 H2 1_555 1_555
C14 H4 1_555 1_555
C15 C11 1_555 1_555
H5 C15 1_555 1_555
C16 C17 1_555 1_555
C17 H6 1_555 1_555
H10 C21 1_555 1_555
C22 C16 1_555 1_555
H11 C22 1_555 1_555
C27 C22 1_555 1_555
O6 C30 1_555 1_555
C29 N3 1_555 1_555
C30 C29 1_555 1_555
Cd4 N3 1_555 1_555
Cd5 O3 1_555 1_555
N8 Cd2 1_555 1_555
Cd2 O10 1_555 1_555
O3 Cd4 1_555 1_555
C5 C29 1_555 1_555
C7 O10 1_555 1_555
C14 C21 1_555 1_555
O12 C33 1_555 1_555
O8 C33 1_555 1_555
C33 C31 1_555 1_555
H23 O8 1_555 1_555
N9 C31 1_555 1_555
C6 C1 1_555 1_555
H1 C6 1_555 1_555
O4 C33_2 1_555 1_555
C12_2 C1 1_555 1_555
C13 C19 1_555 1_555
H7 C18 1_555 1_555
C19 C12_2 1_555 1_555
H8_2 C19 1_555 1_555
C20 C6 1_555 1_555
H9 C20 1_555 1_555
C24 C18 1_555 1_555
O5 C24 1_555 1_555
H19 C32 1_555 1_555
O8_2 C33_2 1_555 1_555
O9 C13 1_555 1_555
C33_2 C31_2 1_555 1_555
C34 O5 1_555 1_555
H20 C34 1_555 1_555
H21 C34 1_555 1_555
H22 C34 1_555 1_555
H23_2 O8_2 1_555 1_555
Cd4 N6 1_555 1_555
N6 C31_2 1_555 1_555
O4 Cd4 1_555 1_555
C13 C20 1_555 1_555
C32 O9 1_555 1_555
N5_2 C14_2 1_555 1_555
C14_2 H4_2 1_555 1_555
C21_2 C9_2 1_555 1_555
H10_2 C21_2 1_555 1_555
C23_2 N5_2 1_555 1_555
H12_2 C23_2 1_555 1_555
C25_2 C9_2 1_555 1_555
H13_2 C25_2 1_555 1_555
Cd6_2 N5_2 1_555 1_555
C14_2 C21_2 1_555 1_555
C23_2 C25_2 1_555 1_555
Cd4 N4_2 1_555 1_555
Cd5 N1_2 1_555 1_555
N1_2 C4_2 1_555 1_555
N2_2 Cd5 1_555 1_555
O1_2 C7_2 1_555 1_555
N7 C4_2 1_555 1_555
N4_2 C11_2 1_555 1_555
C2_2 N2_2 1_555 1_555
O2_2 Cd5 1_555 1_555
C3_2 N2_2 1_555 1_555
O11 C30_2 1_555 1_555
C4_2 C16_2 1_555 1_555
C5_2 N1_2 1_555 1_555
C7_2 C5_2 1_555 1_555
C8_2 C2_2 1_555 1_555
C10_2 C15_2 1_555 1_555
C11_2 H2_2 1_555 1_555
C15_2 C11_2 1_555 1_555
H5_2 C15_2 1_555 1_555
C16_2 C17_2 1_555 1_555
C17_2 H6_2 1_555 1_555
C22_2 C16_2 1_555 1_555
H11_2 C22_2 1_555 1_555
C26_2 N4_2 1_555 1_555
H14_2 C26_2 1_555 1_555
C27_2 C22_2 1_555 1_555
C28_2 C10_2 1_555 1_555
H16_2 C28_2 1_555 1_555
O6_2 C30_2 1_555 1_555
C29_2 N7 1_555 1_555
C30_2 C29_2 1_555 1_555
O7_2 C8_2 1_555 1_555
O10_2 Cd4 1_555 1_555
N8_2 Cd5 1_555 1_555
Cd5 O10_2 1_555 1_555
O2_2 C8_2 1_555 1_555
C5_2 C29_2 1_555 1_555
C7_2 O10_2 1_555 1_555
C26_2 C28_2 1_555 1_555
O4_2 C33_3 1_555 1_555
O8_3 C33_3 1_555 1_555
C33_3 C31_3 1_555 1_555
H23_3 O8_3 1_555 1_555
Cd3 N6_2 1_555 1_555
N6_2 C31_3 1_555 1_555
O4_2 Cd3 1_555 1_555
Cd6 N1_3 1_555 1_555
N1_3 C4_3 1_555 1_555
O1_3 C7_3 1_555 1_555
N3_2 C4_3 1_555 1_555
O3_2 C30_3 1_555 1_555
C4_3 C16_3 1_555 1_555
C5_3 N1_3 1_555 1_555
C7_3 C5_3 1_555 1_555
C11_3 H2_3 1_555 1_555
C14_3 H4_3 1_555 1_555
C15_3 C11_3 1_555 1_555
H5_3 C15_3 1_555 1_555
C16_3 C17_3 1_555 1_555
C17_3 H6_3 1_555 1_555
H10_3 C21_3 1_555 1_555
C22_3 C16_3 1_555 1_555
H11_3 C22_3 1_555 1_555
C27_3 C22_3 1_555 1_555
O6_3 C30_3 1_555 1_555
C29_3 N3_2 1_555 1_555
C30_3 C29_3 1_555 1_555
Cd4_2 N3_2 1_555 1_555
Cd6_2 O3_2 1_555 1_555
Cd6 O10_3 1_555 1_555
O3_2 Cd4_2 1_555 1_555
C5_3 C29_3 1_555 1_555
C7_3 O10_3 1_555 1_555
C14_3 C21_3 1_555 1_555
Cd3 N4_3 1_555 1_555
C2_3 N2_3 1_555 1_555
C3_3 N2_3 1_555 1_555
C8_3 C2_3 1_555 1_555
C9_3 C10_3 1_555 1_555
C23_3 N8 1_555 1_555
H12_3 C23_3 1_555 1_555
C25_3 C9_3 1_555 1_555
H13_3 C25_3 1_555 1_555
C26_3 N4_3 1_555 1_555
H14_3 C26_3 1_555 1_555
C28_3 C10_3 1_555 1_555
H16_3 C28_3 1_555 1_555
O7_3 C8_3 1_555 1_555
N7_2 Cd3 1_555 1_555
O11_2 Cd3 1_555 1_555
O2_3 C8_3 1_555 1_555
C23_3 C25_3 1_555 1_555
C26_3 C28_3 1_555 1_555
Cd4_2 N4_4 1_555 1_555
Cd6_2 N1_4 1_555 1_555
N1_4 C4_4 1_555 1_555
N2_4 Cd6_2 1_555 1_555
O1_4 C7_4 1_555 1_555
N7_2 C4_4 1_555 1_555
N4_4 C11_4 1_555 1_555
C2_4 N2_4 1_555 1_555
O2_4 Cd6_2 1_555 1_555
C3_4 N2_4 1_555 1_555
O11_2 C30_4 1_555 1_555
C4_4 C16_4 1_555 1_555
C5_4 N1_4 1_555 1_555
C7_4 C5_4 1_555 1_555
C8_4 C2_4 1_555 1_555
C10_4 C15_4 1_555 1_555
C11_4 H2_4 1_555 1_555
C15_4 C11_4 1_555 1_555
H5_4 C15_4 1_555 1_555
C16_4 C17_4 1_555 1_555
C17_4 H6_4 1_555 1_555
C22_4 C16_4 1_555 1_555
H11_4 C22_4 1_555 1_555
C26_4 N4_4 1_555 1_555
H14_4 C26_4 1_555 1_555
C27_4 C22_4 1_555 1_555
C28_4 C10_4 1_555 1_555
H16_4 C28_4 1_555 1_555
O6_4 C30_4 1_555 1_555
C29_4 N7_2 1_555 1_555
C30_4 C29_4 1_555 1_555
O7_4 C8_4 1_555 1_555
O10_4 Cd4_2 1_555 1_555
N9_2 Cd4_2 1_555 1_555
O12_2 Cd4_2 1_555 1_555
Cd6_2 O10_4 1_555 1_555
O2_4 C8_4 1_555 1_555
C5_4 C29_4 1_555 1_555
C7_4 O10_4 1_555 1_555
C26_4 C28_4 1_555 1_555
N8_2 C14_4 1_555 1_555
C14_4 H4_4 1_555 1_555
C21_4 C9_4 1_555 1_555
H10_4 C21_4 1_555 1_555
C23_4 N8_2 1_555 1_555
H12_4 C23_4 1_555 1_555
C25_4 C9_4 1_555 1_555
H13_4 C25_4 1_555 1_555
C14_4 C21_4 1_555 1_555
C23_4 C25_4 1_555 1_555
C6_2 C1_2 1_555 1_555
H1_2 C6_2 1_555 1_555
O12_2 C33_4 1_555 1_555
C12_4 C1_2 1_555 1_555
C13_2 C19_2 1_555 1_555
H7_2 C18_2 1_555 1_555
C19_2 C12_4 1_555 1_555
H8_4 C19_2 1_555 1_555
C20_2 C6_2 1_555 1_555
H9_2 C20_2 1_555 1_555
C24_2 C18_2 1_555 1_555
O5_2 C24_2 1_555 1_555
H19_2 C32_2 1_555 1_555
O8_4 C33_4 1_555 1_555
O9_2 C13_2 1_555 1_555
C33_4 C31_4 1_555 1_555
C34_2 O5_2 1_555 1_555
H20_2 C34_2 1_555 1_555
H21_2 C34_2 1_555 1_555
H22_2 C34_2 1_555 1_555
H23_4 O8_4 1_555 1_555
N9_2 C31_4 1_555 1_555
C13_2 C20_2 1_555 1_555
C32_2 O9_2 1_555 1_555
C6_3 C1_3 1_555 1_555
H1_3 C6_3 1_555 1_555
C13_3 C19_3 1_555 1_555
H7_3 C18_3 1_555 1_555
C20_3 C6_3 1_555 1_555
H9_3 C20_3 1_555 1_555
C24_3 C18_3 1_555 1_555
O5_3 C24_3 1_555 1_555
H18 C32_3 1_555 1_555
H19_3 C32_3 1_555 1_555
O9_3 C13_3 1_555 1_555
C34_3 O5_3 1_555 1_555
H20_3 C34_3 1_555 1_555
H21_3 C34_3 1_555 1_555
H22_3 C34_3 1_555 1_555
C13_3 C20_3 1_555 1_555
C32_3 O9_3 1_555 1_555
C6_4 C1_4 1_555 1_555
H1_4 C6_4 1_555 1_555
C13_4 C19_4 1_555 1_555
H7_4 C18_4 1_555 1_555
C20_4 C6_4 1_555 1_555
H9_4 C20_4 1_555 1_555
C24_4 C18_4 1_555 1_555
O5_4 C24_4 1_555 1_555
H18_3 C32_4 1_555 1_555
H19_4 C32_4 1_555 1_555
O9_4 C13_4 1_555 1_555
C34_4 O5_4 1_555 1_555
H20_4 C34_4 1_555 1_555
H21_4 C34_4 1_555 1_555
H22_4 C34_4 1_555 1_555
C13_4 C20_4 1_555 1_555
C32_4 O9_4 1_555 1_555

#END
