
###############################################################################
#
# This file contains modified crystal structure data generated from the
# MOF subset of the Cambridge Structural Database (CSD) v543 
# hosted by the Cambridge Crystallographic Data Centre (CCDC).
#
# This work is licensed under the Creative Commons
# Attribution-NonCommercial-ShareAlike 4.0 International License.
# To view a copy of this license, visit
# http://creativecommons.org/licenses/by-nc-sa/4.0/
# or send a letter to
# Creative Commons, PO Box 1866, Mountain View, CA 94042, USA.
#
# CIF created using the CSD Python API on 29 September 2022
# The structure has been converted into the P1 space group
# The structure has a 3D framework
# The original CSD entry ZUTVAO is in the tetragonal crystal system
# The framework has been calculated to contain at least 10.0% void space
# The void calculation uses a probe of radius 1.32A, grid spacing 0.4
#
###############################################################################

data_ZUTVAO
_chemical_formula_moiety         '(C8 H8 F10 Ge2 N4 Ni1)n'
_symmetry_cell_setting           triclinic
_symmetry_space_group_name_H-M   'P 1'
_symmetry_Int_Tables_number      1
_space_group_name_Hall           'P 1'
loop_
_symmetry_equiv_pos_site_id
_symmetry_equiv_pos_as_xyz
1 x,y,z
_cell_length_a                   6.9838
_cell_length_b                   6.9838
_cell_length_c                   7.5872
_cell_angle_alpha                90
_cell_angle_beta                 90
_cell_angle_gamma                90
_cell_volume                     370.054
loop_
_atom_site_label
_atom_site_type_symbol
_atom_site_fract_x
_atom_site_fract_y
_atom_site_fract_z
_atom_site_U_iso_or_equiv
_atom_site_thermal_displace_type
C6 C 0.09281 0.50000 0.36015 0.0570 Uiso
H6 H 0.16071 0.50000 0.25926 0.0861 Uiso
N4 N 0.21003 0.50000 0.50000 0.0570 Uiso
C8 C 0.09281 0.50000 0.63985 0.0570 Uiso
H8 H 0.16071 0.50000 0.74074 0.0861 Uiso
Ni4 Ni 0.50000 0.50000 0.50000 0.0380 Uiso
C1 C 0.50000 0.09281 0.36015 0.0570 Uiso
H1 H 0.50000 0.16071 0.25926 0.0861 Uiso
N1 N 0.50000 0.21003 0.50000 0.0570 Uiso
F1 F 0.50000 0.50000 0.20750 0.0443 Uiso
F2 F 0.33890 0.33890 0.00000 0.0443 Uiso
Ge1 Ge 0.50000 0.50000 0.00000 0.0317 Uiso
C3 C 0.50000 0.09281 0.63985 0.0570 Uiso
H3 H 0.50000 0.16071 0.74074 0.0861 Uiso
C5 C 0.90719 0.50000 0.36015 0.0570 Uiso
H5 H 0.83929 0.50000 0.25926 0.0861 Uiso
N3 N 0.78997 0.50000 0.50000 0.0570 Uiso
C7 C 0.90719 0.50000 0.63985 0.0570 Uiso
H7 H 0.83929 0.50000 0.74074 0.0861 Uiso
F4 F 0.66110 0.66110 0.00000 0.0443 Uiso
F5 F 0.66110 0.33890 0.00000 0.0443 Uiso
F6 F 0.33890 0.66110 0.00000 0.0443 Uiso
N5 N 0.50000 0.78997 0.50000 0.0570 Uiso
F7 F 0.50000 0.50000 0.79250 0.0443 Uiso
F2_2 F 0.33890 0.33890 1.00000 0.0443 Uiso
Ge1_2 Ge 0.50000 0.50000 1.00000 0.0317 Uiso
F4_2 F 0.66110 0.66110 1.00000 0.0443 Uiso
F5_2 F 0.66110 0.33890 1.00000 0.0443 Uiso
F6_2 F 0.33890 0.66110 1.00000 0.0443 Uiso
C2 C 0.50000 0.90719 0.36015 0.0570 Uiso
H2 H 0.50000 0.83929 0.25926 0.0861 Uiso
C4 C 0.50000 0.90719 0.63985 0.0570 Uiso
H4 H 0.50000 0.83929 0.74074 0.0861 Uiso
loop_
_geom_bond_atom_site_label_1
_geom_bond_atom_site_label_2
_geom_bond_site_symmetry_1
_geom_bond_site_symmetry_2
H6 C6 1_555 1_555
N4 C6 1_555 1_555
C8 N4 1_555 1_555
H8 C8 1_555 1_555
Ni4 N4 1_555 1_555
C1 H1 1_555 1_555
N1 C1 1_555 1_555
Ni4 N1 1_555 1_555
F1 Ni4 1_555 1_555
F2 Ge1 1_555 1_555
Ge1 F1 1_555 1_555
C3 N1 1_555 1_555
H3 C3 1_555 1_555
C5 H5 1_555 1_555
N3 Ni4 1_555 1_555
C7 N3 1_555 1_555
H7 C7 1_555 1_555
F4 Ge1 1_555 1_555
F5 Ge1 1_555 1_555
F6 Ge1 1_555 1_555
N5 Ni4 1_555 1_555
F7 Ni4 1_555 1_555
C5 N3 1_555 1_555
F2_2 Ge1_2 1_555 1_555
F7 Ge1_2 1_555 1_555
F4_2 Ge1_2 1_555 1_555
F5_2 Ge1_2 1_555 1_555
F6_2 Ge1_2 1_555 1_555
H2 C2 1_555 1_555
N5 C2 1_555 1_555
C4 N5 1_555 1_555
H4 C4 1_555 1_555

#END
