
###############################################################################
#
# This file contains modified crystal structure data generated from the
# MOF subset of the Cambridge Structural Database (CSD) v543 
# hosted by the Cambridge Crystallographic Data Centre (CCDC).
#
# This work is licensed under the Creative Commons
# Attribution-NonCommercial-ShareAlike 4.0 International License.
# To view a copy of this license, visit
# http://creativecommons.org/licenses/by-nc-sa/4.0/
# or send a letter to
# Creative Commons, PO Box 1866, Mountain View, CA 94042, USA.
#
# CIF created using the CSD Python API on 29 September 2022
# The structure has been converted into the P1 space group
# The structure has a 3D framework
# The original CSD entry ZUZKEN is in the triclinic crystal system
# The framework has been calculated to contain at least 10.0% void space
# The void calculation uses a probe of radius 1.32A, grid spacing 0.4
#
###############################################################################

data_ZUZKEN
_chemical_formula_moiety         '(C18 H14 N6 O16 Y2)n'
_symmetry_cell_setting           triclinic
_symmetry_space_group_name_H-M   'P 1'
_symmetry_Int_Tables_number      1
_space_group_name_Hall           'P 1'
loop_
_symmetry_equiv_pos_site_id
_symmetry_equiv_pos_as_xyz
1 x,y,z
_cell_length_a                   6.0453(2)
_cell_length_b                   12.6860(5)
_cell_length_c                   13.2051(5)
_cell_angle_alpha                62.174(4)
_cell_angle_beta                 86.835(3)
_cell_angle_gamma                87.582(3)
_cell_volume                     894.087
loop_
_atom_site_label
_atom_site_type_symbol
_atom_site_fract_x
_atom_site_fract_y
_atom_site_fract_z
_atom_site_U_iso_or_equiv
_atom_site_thermal_displace_type
N1 N 0.0843(4) 0.4621(2) 0.1079(2) 0.0111 Uani
C3 C 0.2088(5) 0.5223(3) 0.0127(2) 0.0124 Uani
H5 H 0.356761 0.540792 0.018481 0.0150 Uiso
Y3 Y 0.21829(5) 0.33506(2) 0.31879(2) 0.0089 Uani
C10 C 0.2644(5) 0.6157(2) 0.7950(3) 0.0120 Uani
O9 O 0.4611(3) 0.64211(17) 0.79948(17) 0.0135 Uani
C11 C 0.1255(5) 0.5584(2) 0.9051(2) 0.0112 Uani
O10 O 0.1693(3) 0.63180(18) 0.70606(17) 0.0155 Uani
Y6 Y 0.78171(5) 0.66494(2) 0.68121(2) 0.0089 Uani
O13 O 0.0272(4) 0.97923(18) 0.36405(18) 0.0177 Uani
O1 O 0.4877(3) 0.32747(19) 0.44603(18) 0.0157 Uani
H1 H 0.514(5) 0.269(2) 0.5113(13) 0.0190 Uiso
H2 H 0.611(3) 0.346(2) 0.407(2) 0.0190 Uiso
O2 O 0.1263(4) 0.21303(18) 0.23704(18) 0.0166 Uani
H3 H 0.106(6) 0.1383(11) 0.2785(19) 0.0200 Uiso
H4 H 0.149(6) 0.226(2) 0.1683(10) 0.0200 Uiso
C1 C 0.7356(5) 0.3843(2) 0.2050(3) 0.0120 Uani
O3 O 0.5389(3) 0.35789(17) 0.20052(17) 0.0135 Uani
C2 C 0.8745(5) 0.4416(2) 0.0949(2) 0.0112 Uani
O4 O 0.8307(3) 0.36820(18) 0.29394(17) 0.0155 Uani
N2 N 0.0628(4) 0.4351(2) 0.4416(2) 0.0135 Uani
O5 O 0.3125(4) 0.53212(18) 0.24935(18) 0.0176 Uani
O6 O 0.3361(6) 0.7026(2) 0.2570(2) 0.0564 Uani
C5 C 0.1264(5) 0.5479(3) 0.4031(3) 0.0154 Uani
C6 C 0.2718(6) 0.5995(3) 0.2952(3) 0.0234 Uani
C7 C 0.0895(5) 0.0867(3) 0.5508(3) 0.0122 Uani
N3 N 0.4166(4) 0.1141(2) 0.4287(2) 0.0113 Uani
C8 C 0.3084(5) 0.0390(3) 0.5250(2) 0.0122 Uani
O8 O 0.0402(3) 0.19327(17) 0.48001(17) 0.0142 Uani
C9 C 0.6107(5) 0.0737(3) 0.4038(3) 0.0139 Uani
H7 H 0.693584 0.123750 0.336016 0.0170 Uiso
C13 C 0.0629(5) 0.6121(3) 0.4618(3) 0.0164 Uani
H9 H 0.110499 0.691841 0.432142 0.0200 Uiso
N4 N 0.9157(4) 0.5379(2) 0.8921(2) 0.0111 Uani
C12 C 0.7912(5) 0.4777(3) 0.9873(2) 0.0124 Uani
H8 H 0.643239 0.459208 0.981519 0.0150 Uiso
C16 C 0.9105(5) 0.9133(3) 0.4492(3) 0.0122 Uani
N6 N 0.5834(4) 0.8859(2) 0.5713(2) 0.0113 Uani
C17 C 0.6916(5) 0.9610(3) 0.4750(2) 0.0122 Uani
O14 O 0.9598(3) 0.80673(17) 0.51999(17) 0.0142 Uani
C18 C 0.3893(5) 0.9263(3) 0.5962(3) 0.0139 Uani
H10 H 0.306416 0.876250 0.663984 0.0170 Uiso
C4 C 0.9371(5) 0.3879(3) 0.5382(3) 0.0164 Uani
H6 H 0.889501 0.308159 0.567858 0.0200 Uiso
O7 O 0.9728(4) 0.02077(18) 0.63595(18) 0.0177 Uani
N5 N 0.9372(4) 0.5649(2) 0.5584(2) 0.0135 Uani
O11 O 0.6875(4) 0.46788(18) 0.75065(18) 0.0176 Uani
O12 O 0.6639(6) 0.2974(2) 0.7430(2) 0.0564 Uani
C14 C 0.8736(5) 0.4521(3) 0.5969(3) 0.0154 Uani
C15 C 0.7282(6) 0.4005(3) 0.7048(3) 0.0234 Uani
O15 O 0.5123(3) 0.67253(19) 0.55397(18) 0.0157 Uani
H11 H 0.486(5) 0.731(2) 0.4887(13) 0.0190 Uiso
H12 H 0.389(3) 0.654(2) 0.593(2) 0.0190 Uiso
O16 O 0.8737(4) 0.78697(18) 0.76296(18) 0.0166 Uani
H13 H 0.894(6) 0.8617(11) 0.7215(19) 0.0200 Uiso
H14 H 0.851(6) 0.774(2) 0.8317(10) 0.0200 Uiso
loop_
_atom_site_aniso_label
_atom_site_aniso_U_11
_atom_site_aniso_U_22
_atom_site_aniso_U_33
_atom_site_aniso_U_23
_atom_site_aniso_U_13
_atom_site_aniso_U_12
N1 0.0073 0.0135 0.0116 -0.0051 -0.0013 0.0018
C3 0.0063 0.017 0.0131 -0.0063 -0.0015 -0.0002
Y3 0.0067 0.0108 0.00857 -0.00391 2e-05 -0.00105
C10 0.0077 0.0123 0.0137 -0.0044 0.0008 0.0028
O9 0.0074 0.017 0.013 -0.0044 0.0014 -0.0018
C11 0.0087 0.0117 0.0112 -0.0037 0.0004 -0.0003
O10 0.0112 0.0215 0.0106 -0.0049 -0.0007 0.0016
Y6 0.0067 0.0108 0.00857 -0.00391 2e-05 -0.00105
O13 0.0156 0.0148 0.0182 -0.0042 0.0036 -0.0014
O1 0.0095 0.0255 0.011 -0.0074 0.0005 -0.0024
O2 0.0252 0.0115 0.0097 -0.0018 -0.0008 -0.0036
C1 0.0077 0.0123 0.0137 -0.0044 0.0008 0.0028
O3 0.0074 0.017 0.013 -0.0044 0.0014 -0.0018
C2 0.0087 0.0117 0.0112 -0.0037 0.0004 -0.0003
O4 0.0112 0.0215 0.0106 -0.0049 -0.0007 0.0016
N2 0.0128 0.0148 0.0129 -0.0061 -0.0001 -0.0037
O5 0.0235 0.0164 0.0149 -0.0093 0.0065 -0.007
O6 0.103 0.0308 0.0438 -0.0268 0.05 -0.0413
C5 0.0169 0.0146 0.0158 -0.0084 0.0035 -0.0019
C6 0.033 0.0162 0.0221 -0.0101 0.0122 -0.0133
C7 0.0134 0.0107 0.0141 -0.0068 -0.0025 -0.002
N3 0.0097 0.0133 0.0111 -0.0055 -0.0027 -0.0024
C8 0.0112 0.0145 0.0117 -0.0066 -0.0017 -0.0016
O8 0.0132 0.0124 0.0136 -0.0032 0.0004 -0.0001
C9 0.0131 0.0151 0.0105 -0.0033 -0.0016 -0.0006
C13 0.0171 0.0152 0.0182 -0.0089 0.0038 -0.0047
N4 0.0073 0.0135 0.0116 -0.0051 -0.0013 0.0018
C12 0.0063 0.017 0.0131 -0.0063 -0.0015 -0.0002
C16 0.0134 0.0107 0.0141 -0.0068 -0.0025 -0.002
N6 0.0097 0.0133 0.0111 -0.0055 -0.0027 -0.0024
C17 0.0112 0.0145 0.0117 -0.0066 -0.0017 -0.0016
O14 0.0132 0.0124 0.0136 -0.0032 0.0004 -0.0001
C18 0.0131 0.0151 0.0105 -0.0033 -0.0016 -0.0006
C4 0.0171 0.0152 0.0182 -0.0089 0.0038 -0.0047
O7 0.0156 0.0148 0.0182 -0.0042 0.0036 -0.0014
N5 0.0128 0.0148 0.0129 -0.0061 -0.0001 -0.0037
O11 0.0235 0.0164 0.0149 -0.0093 0.0065 -0.007
O12 0.103 0.0308 0.0438 -0.0268 0.05 -0.0413
C14 0.0169 0.0146 0.0158 -0.0084 0.0035 -0.0019
C15 0.033 0.0162 0.0221 -0.0101 0.0122 -0.0133
O15 0.0095 0.0255 0.011 -0.0074 0.0005 -0.0024
O16 0.0252 0.0115 0.0097 -0.0018 -0.0008 -0.0036
loop_
_geom_bond_atom_site_label_1
_geom_bond_atom_site_label_2
_geom_bond_site_symmetry_1
_geom_bond_site_symmetry_2
C3 N1 1_555 1_555
H5 C3 1_555 1_555
Y3 N1 1_555 1_555
C10 O9 1_555 1_555
O9 Y6 1_555 1_555
O10 C10 1_555 1_555
C10 C11 1_555 1_555
Y3 O1 1_555 1_555
O1 H1 1_555 1_555
H2 O1 1_555 1_555
O2 Y3 1_555 1_555
H3 O2 1_555 1_555
H4 O2 1_555 1_555
C1 O3 1_555 1_555
O3 Y3 1_555 1_555
C2 C1 1_555 1_555
O4 C1 1_555 1_555
N2 Y3 1_555 1_555
O5 Y3 1_555 1_555
O6 C6 1_555 1_555
C5 N2 1_555 1_555
C6 O5 1_555 1_555
N3 Y3 1_555 1_555
C8 C7 1_555 1_555
O8 Y3 1_555 1_555
C9 N3 1_555 1_555
H7 C9 1_555 1_555
C13 C5 1_555 1_555
H9 C13 1_555 1_555
C5 C6 1_555 1_555
C7 O8 1_555 1_555
N3 C8 1_555 1_555
H8 C12 1_555 1_555
Y6 N4 1_555 1_555
N4 C12 1_555 1_555
N6 C17 1_555 1_555
O14 C16 1_555 1_555
H10 C18 1_555 1_555
Y6 N6 1_555 1_555
C16 C17 1_555 1_555
N6 C18 1_555 1_555
O14 Y6 1_555 1_555
H6 C4 1_555 1_555
O11 C15 1_555 1_555
O12 C15 1_555 1_555
C14 C4 1_555 1_555
C15 C14 1_555 1_555
Y6 N5 1_555 1_555
O15 Y6 1_555 1_555
H11 O15 1_555 1_555
H12 O15 1_555 1_555
O16 Y6 1_555 1_555
H13 O16 1_555 1_555
H14 O16 1_555 1_555
N5 C14 1_555 1_555
O11 Y6 1_555 1_555

#END
