
###############################################################################
#
# This file contains modified crystal structure data generated from the
# MOF subset of the Cambridge Structural Database (CSD) v543 
# hosted by the Cambridge Crystallographic Data Centre (CCDC).
#
# This work is licensed under the Creative Commons
# Attribution-NonCommercial-ShareAlike 4.0 International License.
# To view a copy of this license, visit
# http://creativecommons.org/licenses/by-nc-sa/4.0/
# or send a letter to
# Creative Commons, PO Box 1866, Mountain View, CA 94042, USA.
#
# CIF created using the CSD Python API on 29 September 2022
# The structure has been converted into the P1 space group
# The structure has a 3D framework
# The original CSD entry ZUZVUO is in the monoclinic crystal system
# The original CSD entry ZUZVUO is in a Sohncke space group
# The framework has been calculated to contain at least 10.0% void space
# The void calculation uses a probe of radius 1.32A, grid spacing 0.4
# H atom positions have been added when not included in the experimental data
#
###############################################################################

data_ZUZVUO
_chemical_formula_moiety         '(C113 H100 N24 Ni4 O24)n'
_symmetry_cell_setting           triclinic
_symmetry_space_group_name_H-M   'P 1'
_symmetry_Int_Tables_number      1
_space_group_name_Hall           'P 1'
loop_
_symmetry_equiv_pos_site_id
_symmetry_equiv_pos_as_xyz
1 x,y,z
_cell_length_a                   9.5681(2)
_cell_length_b                   30.7427(7)
_cell_length_c                   10.9127(2)
_cell_angle_alpha                90
_cell_angle_beta                 93.274(2)
_cell_angle_gamma                90
_cell_volume                     3204.72
loop_
_atom_site_label
_atom_site_type_symbol
_atom_site_fract_x
_atom_site_fract_y
_atom_site_fract_z
Ni1 Ni 0.22294(6) 0.126516(16) 0.07897(5)
N2 N 0.1860(4) 0.08089(12) 0.2130(3)
O2 O 0.4417(3) 0.11244(11) 0.0954(3)
N5 N 0.0184(3) 0.14824(11) 0.0601(3)
N9 N 0.0962(3) 0.04822(11) 0.3711(3)
C7 C 0.1942(4) 0.01965(14) 0.3241(4)
C11 C 0.0148(4) 0.04095(14) 0.4731(3)
C12 C 0.0966(4) 0.08477(13) 0.2989(4)
H6 H 0.0407 0.1091 0.3095
H12 H 0.0189 0.1033 0.5325
H13 H 0.0589 0.2123 0.0698
C24 C 0.2471(5) 0.04030(16) 0.2301(4)
H15 H 0.3158 0.0290 0.1822
H48 H 0.475(5) 0.1220(16) 0.160(3)
O14 O 0.2459(3) 0.17372(10) 0.2146(3)
H50 H 0.488574 0.126175 0.0263371
N3 N 0.2921(4) 0.48737(13) 0.0574(3)
O3 O 0.2201(3) 0.39335(12) 0.0378(3)
O6 O 0.0003(3) 0.40101(12) 0.0856(3)
N8 N 0.2263(4) 0.52025(12) 0.2240(3)
C2 C 0.1281(4) 0.33814(13) 0.1576(4)
C3 C 0.3177(5) 0.54732(16) 0.1707(4)
H1 H 0.3462 0.5747 0.1984
C5 C 0.1487(4) 0.52769(14) 0.3291(3)
N11 N 0.1460(3) 0.69785(12) 0.9690(3)
O9 O 0.1729(4) 0.22963(10) 0.3798(3)
C14 C 0.1144(4) 0.38082(13) 0.0866(4)
C15 C 0.2149(5) 0.48426(15) 0.1524(4)
H8 H 0.1593 0.4604 0.1686
C18 C 0.3590(4) 0.52657(15) 0.0693(3)
H11 H 0.4231 0.5374 0.0160
C19 C 0.0156(5) 0.57570(15) 0.4522(4)
C21 C 0.0081(4) 0.69062(14) 0.9435(4)
C23 C 0.1642(4) 0.26368(13) 0.3011(3)
C25 C 0.2568(5) 0.31946(18) 0.1783(5)
H16 H 0.3331 0.3317 0.1420
C27 C 0.0995(5) 0.56831(16) 0.3530(4)
H18 H 0.1219 0.5914 0.3028
C28 C 0.0355(5) 0.49998(15) 0.5036(4)
H19 H 0.0149 0.4770 0.5549
C30 C 0.1171(5) 0.49266(15) 0.4037(4)
H21 H 0.1498 0.4649 0.3872
O12 O 0.4639(4) 0.16536(17) 0.2955(4)
C34 C 0.0133(4) 0.31787(14) 0.2043(4)
C35 C 0.2092(4) 0.65787(17) 0.9844(5)
C36 C 0.3412(4) 0.18043(14) 0.2935(4)
C37 C 0.3042(5) 0.20850(15) 0.4028(3)
H26 H 0.3771 0.2306 0.4178
C39 C 0.1063(4) 0.62770(17) 0.9665(4)
H27 H 0.1188 0.5977 0.9715
C41 C 0.0306(4) 0.28102(14) 0.2752(4)
C42 C 0.2076(4) 0.73978(14) 0.9929(4)
C44 C 0.3807(5) 0.79357(18) 0.9547(5)
H30 H 0.4590 0.8020 0.9139
C48 C 0.2775(5) 0.28351(18) 0.2503(5)
H34 H 0.3672 0.2723 0.2652
C50 C 0.3244(5) 0.75104(19) 0.9356(6)
H36 H 0.3670 0.7314 0.8849
C53 C 0.2968(6) 0.18079(16) 0.5139(4)
H39 H 0.3849 0.1664 0.5302
H40 H 0.2242 0.1595 0.5003
H41 H 0.2764 0.1986 0.5828
N13 N 0.2037(4) 0.07915(12) 0.9419(3)
O13 O 0.2618(3) 0.17522(11) 0.9508(3)
N7 N 0.6012(4) 0.01933(12) 0.3743(3)
N10 N 0.2754(4) 0.04474(12) 0.7804(3)
C4 C 0.1863(5) 0.01676(14) 0.8360(4)
C6 C 0.3542(4) 0.03735(14) 0.6742(3)
C8 C 0.2828(4) 0.08172(14) 0.8465(3)
H4 H 0.3363 0.1058 0.8277
C9 C 0.6860(5) 0.04954(14) 0.3251(4)
H5 H 0.7016 0.0779 0.3520
C13 C 0.1437(4) 0.03815(14) 0.9357(4)
H7 H 0.0832 0.0270 0.9916
C20 C 0.5167(4) 0.02536(14) 0.4776(3)
C26 C 0.7438(5) 0.02944(14) 0.2277(4)
H17 H 0.8083 0.0420 0.1777
C32 C 0.3787(5) 0.07162(15) 0.5982(4)
H22 H 0.3382 0.0985 0.6127
C33 C 0.4635(5) 0.06677(15) 0.4995(4)
H23 H 0.4840 0.0903 0.4499
N6 N 0.4663(3) 0.41658(12) 0.9264(3)
N12 N 0.6210(4) 0.36422(13) 0.9490(4)
C22 C 0.4856(4) 0.37411(15) 0.9291(4)
H14 H 0.4142 0.3537 0.9186
H25 H 0.6964 0.1525 0.9966
C43 C 0.6791(4) 0.32197(15) 0.9682(4)
C45 C 0.5966(5) 0.43434(17) 0.9440(6)
H31 H 0.6157 0.4640 0.9466
C51 C 0.6928(5) 0.40285(19) 0.9568(7)
H37 H 0.7891 0.4064 0.9686
C54 C 0.8505(5) 0.26741(17) 0.9255(5)
H42 H 0.9241 0.2580 0.8802
C55 C 0.7990(5) 0.30986(18) 0.9103(5)
H43 H 0.8444 0.3297 0.8621
Ni5 Ni 0.26437(6) 0.441966(17) 0.91359(5)
Ni2 Ni 0.73563(6) 0.941966(17) 0.08641(5)
N1 N 0.6923(3) 0.98836(12) 0.2155(3)
O1 O 0.9515(3) 0.96008(11) 0.0987(3)
O4 O 0.7382(3) 0.67522(11) 0.0492(3)
O7 O 0.5181(3) 0.66672(11) 0.1061(3)
O8 O 0.7702(3) 0.89703(11) 0.2254(3)
C1 C 0.6433(4) 0.73074(13) 0.1668(4)
H2 H 0.1606 0.9889 0.8103
C10 C 0.6293(4) 0.68853(13) 0.1015(3)
C16 C 0.6075(4) 0.98326(14) 0.3068(4)
H9 H 0.5587 0.9578 0.3217
C17 C 0.4894(5) 0.99092(15) 0.5529(4)
H10 H 0.5265 0.9637 0.5368
O10 O 0.7172(5) 0.83734(12) 0.3943(3)
C29 C 0.4076(5) 0.99618(15) 0.6520(4)
H20 H 0.3886 0.9728 0.7025
C31 C 0.6981(6) 0.80418(15) 0.3118(4)
O11 O 0.9888(4) 0.90895(15) 0.3008(4)
C38 C 0.8735(5) 0.89071(15) 0.2992(4)
C40 C 0.8523(8) 0.85941(19) 0.4059(5)
H28 H 0.8469 0.8782 0.4781
C46 C 0.5492(5) 0.74437(15) 0.2493(4)
H32 H 0.4661 0.7291 0.2558
C47 C 0.7859(5) 0.79379(15) 0.2230(5)
H33 H 0.8630 0.8112 0.2094
C49 C 0.7586(5) 0.75682(17) 0.1528(5)
H35 H 0.8208 0.7493 0.0938
C52 C 0.5755(6) 0.78027(16) 0.3228(4)
H38 H 0.5116 0.7885 0.3796
C56 C 0.9748(11) 0.8295(3) 0.4366(9)
H45 H 0.9805 0.8080 0.3732
H46 H 0.9620 0.8153 0.5135
H47 H 0.989(3) 0.9435(10) 0.053(3)
N14 N 0.5337(3) 0.91658(12) 0.0736(3)
H49 H 0.991539 0.956729 0.184147
N12_2 N 0.3790(4) 0.86422(13) 0.0510(4)
C22_2 C 0.5144(4) 0.87411(15) 0.0709(4)
H14_2 H 0.5858 0.8537 0.0814
H25_2 H 0.3036 0.6525 0.0034
C43_2 C 0.3209(4) 0.82197(15) 0.0318(4)
C45_2 C 0.4034(5) 0.93434(17) 0.0560(6)
H31_2 H 0.3843 0.9640 0.0534
C51_2 C 0.3072(5) 0.90285(19) 0.0432(7)
H37_2 H 0.2109 0.9064 0.0314
C54_2 C 0.1495(5) 0.76741(17) 0.0745(5)
H42_2 H 0.0759 0.7580 0.1198
C55_2 C 0.2010(5) 0.80986(18) 0.0897(5)
H43_2 H 0.1556 0.8297 0.1379
N1_2 N 0.3077(3) 0.48836(12) 0.7845(3)
O1_2 O 0.0485(3) 0.46008(11) 0.9013(3)
N4 N 0.7963(4) 0.57915(12) 0.0581(3)
N7_2 N 0.3988(4) 0.51933(12) 0.6257(3)
O7_2 O 0.4819(3) 0.16672(11) 0.8939(3)
O8_2 O 0.2298(3) 0.39703(11) 0.7746(3)
N10_2 N 0.7246(4) 0.54474(12) 0.2196(3)
C1_2 C 0.3567(4) 0.23074(13) 0.8332(4)
C4_2 C 0.8137(5) 0.51676(14) 0.1640(4)
H2_2 H 0.8394 0.4889 0.1897
C6_2 C 0.6458(4) 0.53735(14) 0.3258(3)
C8_2 C 0.7172(4) 0.58172(14) 0.1535(3)
H4_2 H 0.6637 0.6058 0.1723
C9_2 C 0.3140(5) 0.54954(14) 0.6749(4)
H5_2 H 0.2984 0.5779 0.6480
C10_2 C 0.3707(4) 0.18853(13) 0.8985(3)
C13_2 C 0.8563(4) 0.53815(14) 0.0643(4)
H7_2 H 0.9168 0.5270 0.0084
C16_2 C 0.3925(4) 0.48326(14) 0.6932(4)
H9_2 H 0.4413 0.4578 0.6783
C17_2 C 0.5106(5) 0.49092(15) 0.4471(4)
H10_2 H 0.4735 0.4637 0.4632
O10_2 O 0.2828(5) 0.33734(12) 0.6057(3)
C20_2 C 0.4833(4) 0.52536(14) 0.5224(3)
C26_2 C 0.2562(5) 0.52944(14) 0.7723(4)
H17_2 H 0.1917 0.5420 0.8223
C29_2 C 0.5924(5) 0.49618(15) 0.3480(4)
H20_2 H 0.6114 0.4728 0.2975
C31_2 C 0.3019(6) 0.30418(15) 0.6882(4)
C32_2 C 0.6213(5) 0.57162(15) 0.4018(4)
H22_2 H 0.6618 0.5985 0.3873
C33_2 C 0.5365(5) 0.56677(15) 0.5005(4)
H23_2 H 0.5160 0.5903 0.5501
O11_2 O 0.0112(4) 0.40895(15) 0.6992(4)
C38_2 C 0.1265(5) 0.39071(15) 0.7008(4)
C40_2 C 0.1477(8) 0.35941(19) 0.5941(5)
H28_2 H 0.1531 0.3782 0.5219
C46_2 C 0.4508(5) 0.24437(15) 0.7507(4)
H32_2 H 0.5339 0.2291 0.7442
C47_2 C 0.2141(5) 0.29379(15) 0.7770(5)
H33_2 H 0.1370 0.3112 0.7906
C49_2 C 0.2414(5) 0.25682(17) 0.8472(5)
H35_2 H 0.1792 0.2493 0.9062
C52_2 C 0.4245(6) 0.28027(16) 0.6772(4)
H38_2 H 0.4884 0.2885 0.6204
C56_2 C 0.0252(11) 0.3295(3) 0.5634(9)
H45_2 H 0.0195 0.3080 0.6268
H46_2 H 0.0380 0.3153 0.4865
H47_2 H 0.011(3) 0.4435(10) 0.947(3)
H49_2 H 0.00846056 0.456729 0.815853
H44 H 0.0598 0.8462 0.4426
H3 H 0.2174 0.9919 0.3528
H24 H 0.0759 0.8292 0.8122
H29 H 0.0470 0.7676 0.6940
N8_2 N 0.7737(4) 0.02025(12) 0.7760(3)
C3_2 C 0.6823(5) 0.04732(16) 0.8293(4)
H1_2 H 0.6538 0.0747 0.8016
C5_2 C 0.8513(4) 0.02769(14) 0.6709(3)
N11_2 N 0.8540(3) 0.19785(12) 0.0310(3)
C18_2 C 0.6410(4) 0.02657(15) 0.9307(3)
H11_2 H 0.5769 0.0374 0.9840
C19_2 C 0.9844(5) 0.07570(15) 0.5478(4)
C21_2 C 0.9919(4) 0.19062(14) 0.0565(4)
C27_2 C 0.9005(5) 0.06831(16) 0.6470(4)
H18_2 H 0.8781 0.0914 0.6972
C28_2 C 0.9645(5) -0.00002(15) 0.4964(4)
C35_2 C 0.7908(4) 0.15787(17) 0.0156(5)
C39_2 C 0.8937(4) 0.12770(17) 0.0335(4)
H27_2 H 0.8812 0.0977 0.0285
C42_2 C 0.7924(4) 0.23978(14) 0.0071(4)
C44_2 C 0.6193(5) 0.29357(18) 0.0453(5)
H30_2 H 0.5410 0.3020 0.0861
C50_2 C 0.6756(5) 0.25104(19) 0.0644(6)
H36_2 H 0.6330 0.2314 0.1151
N3_2 N 0.7079(4) 0.98737(13) 0.9426(3)
O3_2 O 0.7799(3) 0.89335(12) 0.9622(3)
O5 O 0.7541(3) 0.67372(10) 0.7854(3)
O6_2 O 0.9997(3) 0.90101(12) 0.9144(3)
C2_2 C 0.8719(4) 0.83814(13) 0.8424(4)
O9_2 O 0.8271(4) 0.72963(10) 0.6202(3)
C14_2 C 0.8856(4) 0.88082(13) 0.9134(4)
C15_2 C 0.7851(5) 0.98426(15) 0.8476(4)
H8_2 H 0.8407 0.9604 0.8314
C23_2 C 0.8358(4) 0.76368(13) 0.6989(3)
C25_2 C 0.7432(5) 0.81946(18) 0.8217(5)
H16_2 H 0.6669 0.8317 0.8580
C28_3 C 0.9645(5) 0.99998(15) 0.4964(4)
H19_2 H 0.9851 0.9770 0.4451
C30_2 C 0.8829(5) 0.99266(15) 0.5963(4)
H21_2 H 0.8502 0.9649 0.6128
O12_2 O 0.5361(4) 0.66536(17) 0.7045(4)
C34_2 C 0.9867(4) 0.81787(14) 0.7957(4)
C36_2 C 0.6588(4) 0.68043(14) 0.7065(4)
C37_2 C 0.6958(5) 0.70850(15) 0.5972(3)
H26_2 H 0.6229 0.7306 0.5822
C41_2 C 0.9694(4) 0.78102(14) 0.7248(4)
C48_2 C 0.7225(5) 0.78351(18) 0.7497(5)
H34_2 H 0.6328 0.7723 0.7348
C53_2 C 0.7032(6) 0.68079(16) 0.4861(4)
H39_2 H 0.6151 0.6664 0.4698
H40_2 H 0.7758 0.6595 0.4997
H41_2 H 0.7236 0.6986 0.4172
Ni4 Ni 0.77706(6) 0.626516(16) 0.92103(5)
N2_2 N 0.8140(4) 0.58089(12) 0.7870(3)
O2_2 O 0.5583(3) 0.61244(11) 0.9046(3)
N5_2 N 0.9816(3) 0.64824(11) 0.9399(3)
N9_2 N 0.9038(3) 0.54822(11) 0.6289(3)
C7_2 C 0.8058(4) 0.51965(14) 0.6759(4)
H3_2 H 0.7826 0.4919 0.6472
C11_2 C 0.9852(4) 0.54095(14) 0.5269(3)
C12_2 C 0.9034(4) 0.58477(13) 0.7011(4)
H6_2 H 0.9593 0.6091 0.6905
H12_2 H 0.9811 0.6033 0.4675
H13_2 H 0.9411 0.7123 0.9302
C24_2 C 0.7529(5) 0.54030(16) 0.7699(4)
H15_2 H 0.6842 0.5290 0.8178
H24_2 H 0.9241 0.3292 0.1878
H29_2 H 0.9530 0.2676 0.3060
H48_2 H 0.525(5) 0.6220(16) 0.840(3)
H50_2 H 0.511426 0.626175 0.973663
H44_2 H 0.9402 0.3462 0.5574
loop_
_geom_bond_atom_site_label_1
_geom_bond_atom_site_label_2
_geom_bond_site_symmetry_1
_geom_bond_site_symmetry_2
Ni1 N2 1_555 1_555
N2 C12 1_555 1_555
O2 Ni1 1_555 1_555
N5 Ni1 1_555 1_555
N9 C7 1_555 1_555
C11 N9 1_555 1_555
C12 N9 1_555 1_555
H6 C12 1_555 1_555
C24 N2 1_555 1_555
H15 C24 1_555 1_555
H48 O2 1_555 1_555
O14 Ni1 1_555 1_555
C7 C24 1_555 1_555
O2 H50 1_555 1_555
O14 C36 1_555 1_555
O6 C14 1_555 1_555
N8 C3 1_555 1_555
C2 C14 1_555 1_555
C3 H1 1_555 1_555
C5 N8 1_555 1_555
N11 C21 1_555 1_555
O9 C23 1_555 1_555
C14 O3 1_555 1_555
C15 N3 1_555 1_555
H8 C15 1_555 1_555
C18 N3 1_555 1_555
H11 C18 1_555 1_555
C23 C41 1_555 1_555
C25 C2 1_555 1_555
H16 C25 1_555 1_555
C27 C5 1_555 1_555
H18 C27 1_555 1_555
H19 C28 1_555 1_555
C30 C5 1_555 1_555
H21 C30 1_555 1_555
O12 C36 1_555 1_555
C34 C2 1_555 1_555
C35 N11 1_555 1_555
C36 C37 1_555 1_555
C37 O9 1_555 1_555
H26 C37 1_555 1_555
H27 C39 1_555 1_555
C41 C34 1_555 1_555
C42 N11 1_555 1_555
H30 C44 1_555 1_555
C48 C23 1_555 1_555
H34 C48 1_555 1_555
C50 C42 1_555 1_555
H36 C50 1_555 1_555
C53 C37 1_555 1_555
H39 C53 1_555 1_555
H40 C53 1_555 1_555
H41 C53 1_555 1_555
N8 C15 1_555 1_555
C3 C18 1_555 1_555
C19 C27 1_555 1_555
C25 C48 1_555 1_555
C28 C30 1_555 1_555
C35 C39 1_555 1_555
C44 C50 1_555 1_555
N13 C8 1_555 1_555
N7 C9 1_555 1_555
N10 C4 1_555 1_555
C6 N10 1_555 1_555
C8 N10 1_555 1_555
H4 C8 1_555 1_555
C9 H5 1_555 1_555
C13 N13 1_555 1_555
H7 C13 1_555 1_555
C20 N7 1_555 1_555
H17 C26 1_555 1_555
C32 C6 1_555 1_555
H22 C32 1_555 1_555
C33 C20 1_555 1_555
H23 C33 1_555 1_555
C4 C13 1_555 1_555
C9 C26 1_555 1_555
C32 C33 1_555 1_555
N6 C22 1_555 1_555
N12 C22 1_555 1_555
C22 H14 1_555 1_555
C43 N12 1_555 1_555
C45 N6 1_555 1_555
H31 C45 1_555 1_555
C51 N12 1_555 1_555
H37 C51 1_555 1_555
H42 C54 1_555 1_555
C55 C43 1_555 1_555
H43 C55 1_555 1_555
Ni5 N6 1_555 1_555
C45 C51 1_555 1_555
C54 C55 1_555 1_555
Ni2 N1 1_555 1_555
N1 C16 1_555 1_555
O1 Ni2 1_555 1_555
O4 C10 1_555 1_555
O7 C10 1_555 1_555
O8 Ni2 1_555 1_555
C1 C10 1_555 1_555
H9 C16 1_555 1_555
C17 H10 1_555 1_555
O10 C31 1_555 1_555
H20 C29 1_555 1_555
C31 C47 1_555 1_555
O11 C38 1_555 1_555
C38 O8 1_555 1_555
C40 O10 1_555 1_555
H28 C40 1_555 1_555
C46 C1 1_555 1_555
H32 C46 1_555 1_555
C47 H33 1_555 1_555
C49 C1 1_555 1_555
H35 C49 1_555 1_555
C52 C31 1_555 1_555
H38 C52 1_555 1_555
C56 C40 1_555 1_555
H45 C56 1_555 1_555
H46 C56 1_555 1_555
H47 O1 1_555 1_555
N14 Ni2 1_555 1_555
C17 C29 1_555 1_555
C38 C40 1_555 1_555
C46 C52 1_555 1_555
C47 C49 1_555 1_555
O1 H49 1_555 1_555
N14 C22_2 1_555 1_555
N12_2 C22_2 1_555 1_555
C22_2 H14_2 1_555 1_555
C43_2 N12_2 1_555 1_555
C45_2 N14 1_555 1_555
H31_2 C45_2 1_555 1_555
C51_2 N12_2 1_555 1_555
H37_2 C51_2 1_555 1_555
H42_2 C54_2 1_555 1_555
C55_2 C43_2 1_555 1_555
H43_2 C55_2 1_555 1_555
C45_2 C51_2 1_555 1_555
C54_2 C55_2 1_555 1_555
Ni5 N1_2 1_555 1_555
N1_2 C16_2 1_555 1_555
O1_2 Ni5 1_555 1_555
N4 C8_2 1_555 1_555
O13 C10_2 1_555 1_555
N7_2 C9_2 1_555 1_555
O7_2 C10_2 1_555 1_555
O8_2 Ni5 1_555 1_555
N10_2 C4_2 1_555 1_555
C1_2 C10_2 1_555 1_555
C4_2 H2_2 1_555 1_555
C6_2 N10_2 1_555 1_555
C8_2 N10_2 1_555 1_555
H4_2 C8_2 1_555 1_555
C9_2 H5_2 1_555 1_555
C13_2 N4 1_555 1_555
H7_2 C13_2 1_555 1_555
C16_2 N7_2 1_555 1_555
H9_2 C16_2 1_555 1_555
C17_2 H10_2 1_555 1_555
O10_2 C31_2 1_555 1_555
C20_2 N7_2 1_555 1_555
C26_2 N1_2 1_555 1_555
H17_2 C26_2 1_555 1_555
C29_2 C6_2 1_555 1_555
H20_2 C29_2 1_555 1_555
C31_2 C47_2 1_555 1_555
C32_2 C6_2 1_555 1_555
H22_2 C32_2 1_555 1_555
C33_2 C20_2 1_555 1_555
H23_2 C33_2 1_555 1_555
O11_2 C38_2 1_555 1_555
C38_2 O8_2 1_555 1_555
C40_2 O10_2 1_555 1_555
H28_2 C40_2 1_555 1_555
C46_2 C1_2 1_555 1_555
H32_2 C46_2 1_555 1_555
C47_2 H33_2 1_555 1_555
C49_2 C1_2 1_555 1_555
H35_2 C49_2 1_555 1_555
C52_2 C31_2 1_555 1_555
H38_2 C52_2 1_555 1_555
C56_2 C40_2 1_555 1_555
H45_2 C56_2 1_555 1_555
H46_2 C56_2 1_555 1_555
H47_2 O1_2 1_555 1_555
C4_2 C13_2 1_555 1_555
C9_2 C26_2 1_555 1_555
C17_2 C20_2 1_555 1_555
C17_2 C29_2 1_555 1_555
C32_2 C33_2 1_555 1_555
C38_2 C40_2 1_555 1_555
C46_2 C52_2 1_555 1_555
C47_2 C49_2 1_555 1_555
O1_2 H49_2 1_555 1_555
N8_2 C3_2 1_555 1_555
C3_2 H1_2 1_555 1_555
C5_2 N8_2 1_555 1_555
N11_2 C21_2 1_555 1_555
H11_2 C18_2 1_555 1_555
C27_2 C5_2 1_555 1_555
H18_2 C27_2 1_555 1_555
C35_2 N11_2 1_555 1_555
H27_2 C39_2 1_555 1_555
C42_2 N11_2 1_555 1_555
H30_2 C44_2 1_555 1_555
C50_2 C42_2 1_555 1_555
H36_2 C50_2 1_555 1_555
C3_2 C18_2 1_555 1_555
C19_2 C27_2 1_555 1_555
C35_2 C39_2 1_555 1_555
C44_2 C50_2 1_555 1_555
O5 C36_2 1_555 1_555
O6_2 C14_2 1_555 1_555
C2_2 C14_2 1_555 1_555
O9_2 C23_2 1_555 1_555
C14_2 O3_2 1_555 1_555
C15_2 N3_2 1_555 1_555
H8_2 C15_2 1_555 1_555
C23_2 C41_2 1_555 1_555
C25_2 C2_2 1_555 1_555
H16_2 C25_2 1_555 1_555
H19_2 C28_3 1_555 1_555
H21_2 C30_2 1_555 1_555
O12_2 C36_2 1_555 1_555
C34_2 C2_2 1_555 1_555
C36_2 C37_2 1_555 1_555
C37_2 O9_2 1_555 1_555
H26_2 C37_2 1_555 1_555
C41_2 C34_2 1_555 1_555
C48_2 C23_2 1_555 1_555
H34_2 C48_2 1_555 1_555
C53_2 C37_2 1_555 1_555
H39_2 C53_2 1_555 1_555
H40_2 C53_2 1_555 1_555
H41_2 C53_2 1_555 1_555
O5 Ni4 1_555 1_555
C25_2 C48_2 1_555 1_555
C28_3 C30_2 1_555 1_555
Ni4 N2_2 1_555 1_555
N2_2 C12_2 1_555 1_555
O2_2 Ni4 1_555 1_555
N5_2 Ni4 1_555 1_555
N9_2 C7_2 1_555 1_555
C7_2 H3_2 1_555 1_555
C11_2 N9_2 1_555 1_555
C12_2 N9_2 1_555 1_555
H6_2 C12_2 1_555 1_555
C24_2 N2_2 1_555 1_555
H15_2 C24_2 1_555 1_555
H48_2 O2_2 1_555 1_555
C7_2 C24_2 1_555 1_555
O2_2 H50_2 1_555 1_555

#END
