
###############################################################################
#
# This file contains modified crystal structure data generated from the
# MOF subset of the Cambridge Structural Database (CSD) v543 
# hosted by the Cambridge Crystallographic Data Centre (CCDC).
#
# This work is licensed under the Creative Commons
# Attribution-NonCommercial-ShareAlike 4.0 International License.
# To view a copy of this license, visit
# http://creativecommons.org/licenses/by-nc-sa/4.0/
# or send a letter to
# Creative Commons, PO Box 1866, Mountain View, CA 94042, USA.
#
# CIF created using the CSD Python API on 29 September 2022
# The structure has been converted into the P1 space group
# The structure has a 3D framework
# The original CSD entry ZUZVOI is in the monoclinic crystal system
# The original CSD entry ZUZVOI is in a Sohncke space group
# The framework has been calculated to contain at least 10.0% void space
# The void calculation uses a probe of radius 1.32A, grid spacing 0.4
# H atom positions have been added when not included in the experimental data
#
###############################################################################

data_ZUZVOI
_chemical_formula_moiety         '(C112 H100 N24 Ni4 O24)n'
_symmetry_cell_setting           triclinic
_symmetry_space_group_name_H-M   'P 1'
_symmetry_Int_Tables_number      1
_space_group_name_Hall           'P 1'
loop_
_symmetry_equiv_pos_site_id
_symmetry_equiv_pos_as_xyz
1 x,y,z
_cell_length_a                   9.547(7)
_cell_length_b                   30.72(4)
_cell_length_c                   10.883(9)
_cell_angle_alpha                90
_cell_angle_beta                 93.23(2)
_cell_angle_gamma                90
_cell_volume                     3186.74
loop_
_atom_site_label
_atom_site_type_symbol
_atom_site_fract_x
_atom_site_fract_y
_atom_site_fract_z
Ni1 Ni 0.23597(6) 0.440831(18) 0.08517(6)
N1 N 0.1932(5) 0.39485(16) 0.2155(4)
O2 O 0.4526(4) 0.42302(14) 0.0987(3)
N5 N 0.0351(5) 0.46606(17) 0.0739(4)
N10 N 0.1034(5) 0.36359(18) 0.3740(4)
C5 C 0.0185(5) 0.3577(2) 0.4774(4)
C7 C 0.1861(6) 0.3340(2) 0.3234(5)
H4 H 0.2010 0.3056 0.3501
H6 H 0.0253 0.4188 0.5352
C20 C 0.1113(6) 0.3997(2) 0.3070(5)
H14 H 0.0641 0.4254 0.3234
C22 C 0.2435(6) 0.3532(2) 0.2269(5)
H15 H 0.3069 0.3403 0.1762
C36 C 0.0148(5) 0.5088(2) 0.0711(5)
H26 H 0.0866 0.5292 0.0816
H31 H 0.0314 0.1544 0.7401
H47 H 0.485(4) 0.4404(11) 0.051(3)
O14 O 0.2712(4) 0.48576(16) 0.2235(4)
H49 H 0.46665 0.392508 0.0719021
N4 N 0.2981(5) 0.80317(18) 0.0585(4)
O4 O 0.2403(4) 0.70767(16) 0.0498(4)
O7 O 0.0191(4) 0.71560(15) 0.1068(4)
N8 N 0.2252(5) 0.83701(17) 0.2213(4)
C3 C 0.1460(6) 0.8459(2) 0.3273(5)
C4 C 0.3134(6) 0.8655(2) 0.1650(6)
H3 H 0.3381 0.8934 0.1907
C8 C 0.1444(6) 0.65189(19) 0.1677(5)
C12 C 0.0109(6) 0.8914(2) 0.4485(5)
C15 C 0.1206(7) 0.8116(2) 0.4020(5)
H9 H 0.1611 0.7847 0.3870
O10 O 0.2168(6) 0.54497(17) 0.3942(4)
C16 C 0.2184(6) 0.8022(2) 0.1548(5)
H10 H 0.1624 0.7785 0.1726
C18 C 0.3558(6) 0.84466(19) 0.0662(5)
H12 H 0.4157 0.8563 0.0102
C21 C 0.1289(5) 0.6945(2) 0.1035(5)
C28 C 0.0345(6) 0.8162(2) 0.5008(6)
H20 H 0.0133 0.7926 0.5500
C33 C 0.1986(7) 0.5788(2) 0.3112(5)
C34 C 0.0935(6) 0.8862(2) 0.3491(5)
H24 H 0.1126 0.9096 0.2985
C41 C 0.0939(6) 0.9495(2) 0.9444(7)
H29 H 0.1126 0.9198 0.9464
C42 C 0.3763(6) 0.4920(2) 0.2980(5)
O11 O 0.4931(5) 0.47413(19) 0.2982(4)
C45 C 0.0508(6) 0.6387(2) 0.2517(6)
C47 C 0.3539(9) 0.5240(3) 0.4070(6)
H33 H 0.3482 0.5050 0.4790
C50 C 0.2830(7) 0.5890(2) 0.2202(7)
H36 H 0.3573 0.5708 0.2033
C51 C 0.2595(6) 0.6259(2) 0.1531(6)
H37 H 0.3233 0.6338 0.0955
C52 C 0.0779(7) 0.6023(2) 0.3242(6)
H38 H 0.0146 0.5938 0.3815
C53 C 0.1916(6) 0.9796(3) 0.9592(9)
H39 H 0.2875 0.9752 0.9738
C56 C 0.4826(10) 0.5525(3) 0.4369(9)
H44 H 0.4644 0.5715 0.5042
H45 H 0.5024 0.5695 0.3660
H46 H 0.5618 0.5343 0.4594
N2 N 0.6865(5) 0.30157(18) 0.2125(4)
N3 N 0.2083(5) 0.39531(18) 0.9417(4)
N6 N 0.2746(5) 0.36204(18) 0.7749(4)
N9 N 0.5953(4) 0.33439(18) 0.3688(4)
C1 C 0.1832(6) 0.3349(2) 0.8297(5)
H1 H 0.1549 0.3073 0.8035
C6 C 0.5151(6) 0.3425(2) 0.4720(5)
C9 C 0.3512(5) 0.3555(2) 0.6702(5)
C11 C 0.6931(6) 0.3636(2) 0.3241(5)
H5 H 0.7163 0.3912 0.3538
C13 C 0.1426(6) 0.3564(2) 0.9296(5)
H7 H 0.0780 0.3460 0.9831
C14 C 0.3855(7) 0.3900(2) 0.5960(5)
H8 H 0.3551 0.4180 0.6132
C19 C 0.5949(6) 0.2988(2) 0.2967(5)
H13 H 0.5362 0.2750 0.3058
C23 C 0.2851(6) 0.3988(2) 0.8467(5)
H16 H 0.3396 0.4230 0.8299
C25 C 0.4006(6) 0.3144(2) 0.6459(5)
H18 H 0.3771 0.2913 0.6956
C26 C 0.7455(6) 0.3428(2) 0.2288(5)
H19 H 0.8129 0.3544 0.1797
C31 C 0.4856(6) 0.3072(2) 0.5474(5)
H22 H 0.5214 0.2796 0.5324
C32 C 0.4653(7) 0.3826(2) 0.4962(5)
H23 H 0.4851 0.4056 0.4445
Ni4 Ni 0.72287(6) 0.256328(18) 0.07787(5)
O13 O 0.2798(4) 0.48913(17) 0.9600(4)
O1 O 0.9415(4) 0.27022(15) 0.0928(4)
O6 O 0.7468(4) 0.20939(15) 0.2141(4)
C10 C 0.6282(5) 0.04441(19) 0.1580(5)
O9 O 0.6724(4) 0.15331(14) 0.3792(4)
C17 C 0.7563(6) 0.0625(2) 0.1816(7)
H11 H 0.8330 0.0492 0.1485
C24 C 0.5328(5) 0.10302(18) 0.2743(5)
H17 H 0.4548 0.1170 0.3032
C27 C 0.6654(5) 0.11999(19) 0.3011(5)
C30 C 0.6144(5) 0.0025(2) 0.0872(5)
C37 C 0.8042(6) 0.1756(2) 0.4023(5)
H27 H 0.8780 0.1538 0.4175
C38 C 0.8395(6) 0.2024(2) 0.2933(5)
O12 O 0.9649(5) 0.2181(2) 0.2936(4)
C46 C 0.5148(5) 0.06552(19) 0.2051(5)
H32 H 0.4251 0.0543 0.1899
C48 C 0.7807(6) 0.0999(2) 0.2521(6)
H34 H 0.8708 0.1110 0.2660
C55 C 0.7965(7) 0.2022(2) 0.5112(5)
H41 H 0.7754 0.1841 0.5797
H42 H 0.7241 0.2236 0.4979
H43 H 0.8849 0.2164 0.5284
H48 H 0.967(4) 0.2571(13) 0.156(2)
N14 N 0.5170(4) 0.23448(16) 0.0591(4)
H50 H 0.958987 0.30197 0.101311
N7 N 0.4830(4) 0.73448(16) 0.9409(4)
C2 C 0.6070(5) 0.7552(2) 0.9674(5)
H2 H 0.6196 0.7852 0.9734
N11 N 0.6464(4) 0.68489(18) 0.9709(5)
C29 C 0.5084(5) 0.6927(2) 0.9458(5)
H21 H 0.4406 0.6711 0.9338
C39 C 0.7063(6) 0.6426(2) 0.9955(6)
C40 C 0.8797(7) 0.5900(3) 0.9587(7)
H28 H 0.9616 0.5819 0.9223
C43 C 0.7100(6) 0.7245(3) 0.9839(7)
C49 C 0.8258(7) 0.6309(3) 0.9346(7)
H35 H 0.8668 0.6498 0.8804
Ni5 Ni 0.27713(6) 0.756328(18) 0.92213(5)
O3 O 0.7202(4) 0.98913(17) 0.0400(4)
O8 O 0.5001(4) 0.98184(16) 0.0862(4)
C2_2 C 0.3930(5) 0.2552(2) 0.0326(5)
H2_2 H 0.3804 0.2852 0.0266
N11_2 N 0.3536(4) 0.18489(18) 0.0291(5)
C29_2 C 0.4916(5) 0.1927(2) 0.0542(5)
H21_2 H 0.5594 0.1711 0.0662
C39_2 C 0.2937(6) 0.1426(2) 0.0045(6)
C40_2 C 0.1203(7) 0.0900(3) 0.0413(7)
H28_2 H 0.0384 0.0819 0.0777
C43_2 C 0.2900(6) 0.2245(3) 0.0161(7)
C49_2 C 0.1742(7) 0.1309(3) 0.0654(7)
H35_2 H 0.1332 0.1498 0.1196
O1_2 O 0.0585(4) 0.77022(15) 0.9072(4)
O6_2 O 0.2532(4) 0.70939(15) 0.7859(4)
O8_2 O 0.4999(4) 0.48184(16) 0.9138(4)
C10_2 C 0.3718(5) 0.54441(19) 0.8420(5)
O9_2 O 0.3276(4) 0.65331(14) 0.6208(4)
C17_2 C 0.2437(6) 0.5625(2) 0.8184(7)
H11_2 H 0.1670 0.5492 0.8515
C24_2 C 0.4672(5) 0.60302(18) 0.7257(5)
H17_2 H 0.5452 0.6170 0.6968
C27_2 C 0.3346(5) 0.61999(19) 0.6989(5)
C30_2 C 0.3856(5) 0.5025(2) 0.9128(5)
C37_2 C 0.1958(6) 0.6756(2) 0.5977(5)
H27_2 H 0.1220 0.6538 0.5825
C38_2 C 0.1605(6) 0.7024(2) 0.7067(5)
O12_2 O 0.0351(5) 0.7181(2) 0.7064(4)
C46_2 C 0.4852(5) 0.56552(19) 0.7949(5)
H32_2 H 0.5749 0.5543 0.8101
C48_2 C 0.2193(6) 0.5999(2) 0.7479(6)
H34_2 H 0.1292 0.6110 0.7340
C55_2 C 0.2035(7) 0.7022(2) 0.4888(5)
H41_2 H 0.2246 0.6841 0.4203
H42_2 H 0.2759 0.7236 0.5021
H43_2 H 0.1151 0.7164 0.4716
H48_2 H 0.033(4) 0.7571(13) 0.844(2)
N13 N 0.3135(5) 0.80157(18) 0.7875(4)
H50_2 H 0.0410126 0.80197 0.898689
N3_2 N 0.7917(5) 0.89531(18) 0.0583(4)
N6_2 N 0.7254(5) 0.86204(18) 0.2251(4)
N9_2 N 0.4047(4) 0.83439(18) 0.6312(4)
C1_2 C 0.8168(6) 0.8349(2) 0.1703(5)
H1_2 H 0.8451 0.8073 0.1965
C6_2 C 0.4849(6) 0.8425(2) 0.5280(5)
C9_2 C 0.6488(5) 0.8555(2) 0.3298(5)
C11_2 C 0.3069(6) 0.8636(2) 0.6759(5)
H5_2 H 0.2837 0.8912 0.6462
C13_2 C 0.8574(6) 0.8564(2) 0.0704(5)
H7_2 H 0.9220 0.8460 0.0169
C14_2 C 0.6145(7) 0.8900(2) 0.4040(5)
H8_2 H 0.6449 0.9180 0.3868
C19_2 C 0.4051(6) 0.7988(2) 0.7033(5)
H13_2 H 0.4638 0.7750 0.6942
C23_2 C 0.7149(6) 0.8988(2) 0.1533(5)
H16_2 H 0.6604 0.9230 0.1701
C25_2 C 0.5994(6) 0.8144(2) 0.3541(5)
H18_2 H 0.6229 0.7913 0.3044
C26_2 C 0.2545(6) 0.8428(2) 0.7712(5)
H19_2 H 0.1871 0.8544 0.8203
C31_2 C 0.5144(6) 0.8072(2) 0.4526(5)
H22_2 H 0.4786 0.7796 0.4676
C32_2 C 0.5347(7) 0.8826(2) 0.5038(5)
H23_2 H 0.5149 0.9056 0.5555
N4_2 N 0.7019(5) 0.30317(18) 0.9415(4)
O4_2 O 0.7597(4) 0.20767(16) 0.9502(4)
O7_2 O 0.9809(4) 0.21560(15) 0.8932(4)
N8_2 N 0.7748(5) 0.33701(17) 0.7787(4)
C3_2 C 0.8540(6) 0.3459(2) 0.6727(5)
C4_2 C 0.6866(6) 0.3655(2) 0.8350(6)
H3_2 H 0.6619 0.3934 0.8093
C8_2 C 0.8556(6) 0.15189(19) 0.8323(5)
C12_2 C 0.9891(6) 0.3914(2) 0.5515(5)
C15_2 C 0.8794(7) 0.3116(2) 0.5980(5)
H9_2 H 0.8389 0.2847 0.6130
O10_2 O 0.7832(6) 0.04497(17) 0.6058(4)
C16_2 C 0.7816(6) 0.3022(2) 0.8452(5)
H10_2 H 0.8376 0.2785 0.8274
C18_2 C 0.6442(6) 0.34466(19) 0.9338(5)
H12_2 H 0.5843 0.3563 0.9898
C21_2 C 0.8711(5) 0.1945(2) 0.8965(5)
C28_2 C 0.9655(6) 0.3162(2) 0.4992(6)
H20_2 H 0.9867 0.2926 0.4500
N12 N 0.8786(5) 0.51929(18) 0.0514(5)
C33_2 C 0.8014(7) 0.0788(2) 0.6888(5)
C34_2 C 0.9065(6) 0.3862(2) 0.6509(5)
H24_2 H 0.8874 0.4096 0.7015
C35 C 0.7078(7) 0.5741(3) 0.0923(7)
H25 H 0.6682 0.5550 0.1467
C41_2 C 0.9061(6) 0.4495(2) 0.0556(7)
H29_2 H 0.8874 0.4198 0.0536
H30 H 0.8051 0.7296 0.0007
C44 C 0.8198(6) 0.5612(2) 0.0322(5)
C45_2 C 0.9492(6) 0.1387(2) 0.7483(6)
C47_2 C 0.6461(9) 0.0240(3) 0.5930(6)
H33_2 H 0.6518 0.0050 0.5210
C50_2 C 0.7170(7) 0.0890(2) 0.7798(7)
H36_2 H 0.6427 0.0708 0.7967
C51_2 C 0.7405(6) 0.1259(2) 0.8469(6)
H37_2 H 0.6767 0.1338 0.9045
C52_2 C 0.9221(7) 0.1023(2) 0.6758(6)
H38_2 H 0.9854 0.0938 0.6185
C53_2 C 0.8084(6) 0.4796(3) 0.0408(9)
H39_2 H 0.7125 0.4752 0.0262
C54 C 0.6496(6) 0.6155(2) 0.0750(6)
H40 H 0.5727 0.6240 0.1180
C56_2 C 0.5174(10) 0.0525(3) 0.5631(9)
H44_2 H 0.5356 0.0715 0.4958
H45_2 H 0.4976 0.0695 0.6340
H46_2 H 0.4382 0.0343 0.5406
O5 O 0.7288(4) 0.98576(16) 0.7765(4)
C42_2 C 0.6237(6) 0.9920(2) 0.7020(5)
O11_2 O 0.5069(5) 0.97413(19) 0.7018(4)
Ni3 Ni 0.76403(6) 0.940831(18) 0.91483(6)
N1_2 N 0.8068(5) 0.89485(16) 0.7845(4)
O2_2 O 0.5474(4) 0.92302(14) 0.9013(3)
N5_2 N 0.9649(5) 0.96606(17) 0.9261(4)
N10_2 N 0.8966(5) 0.86359(18) 0.6260(4)
C5_2 C 0.9815(5) 0.8577(2) 0.5226(4)
C7_2 C 0.8139(6) 0.8340(2) 0.6766(5)
H4_2 H 0.7990 0.8056 0.6499
H6_2 H 0.9747 0.9188 0.4648
C20_2 C 0.8887(6) 0.8997(2) 0.6930(5)
H14_2 H 0.9359 0.9254 0.6766
C22_2 C 0.7565(6) 0.8532(2) 0.7731(5)
H15_2 H 0.6931 0.8403 0.8238
H31_2 H 0.9686 0.6544 0.2599
H47_2 H 0.515(4) 0.9404(11) 0.949(3)
H49_2 H 0.53335 0.892508 0.928098
N12_2 N 0.1214(5) 0.01929(18) 0.9486(5)
C35_2 C 0.2922(7) 0.0741(3) 0.9077(7)
H25_2 H 0.3318 0.0550 0.8533
H30_2 H 0.1949 0.2296 0.9993
C44_2 C 0.1802(6) 0.0612(2) 0.9678(5)
C54_2 C 0.3504(6) 0.1155(2) 0.9250(6)
H40_2 H 0.4273 0.1240 0.8820
C36_2 C 0.9852(5) 0.0088(2) 0.9289(5)
H26_2 H 0.9134 0.0292 0.9184
loop_
_geom_bond_atom_site_label_1
_geom_bond_atom_site_label_2
_geom_bond_site_symmetry_1
_geom_bond_site_symmetry_2
Ni1 N1 1_555 1_555
N1 C20 1_555 1_555
O2 Ni1 1_555 1_555
N5 Ni1 1_555 1_555
N10 C5 1_555 1_555
C7 N10 1_555 1_555
H4 C7 1_555 1_555
C20 N10 1_555 1_555
H14 C20 1_555 1_555
C22 N1 1_555 1_555
H15 C22 1_555 1_555
C36 N5 1_555 1_555
H26 C36 1_555 1_555
H47 O2 1_555 1_555
O14 Ni1 1_555 1_555
C7 C22 1_555 1_555
O2 H49 1_555 1_555
O14 C42 1_555 1_555
O7 C21 1_555 1_555
N8 C3 1_555 1_555
C3 C15 1_555 1_555
C4 N8 1_555 1_555
H3 C4 1_555 1_555
C8 C21 1_555 1_555
C15 H9 1_555 1_555
O10 C33 1_555 1_555
C16 N4 1_555 1_555
H10 C16 1_555 1_555
C18 N4 1_555 1_555
H12 C18 1_555 1_555
C21 O4 1_555 1_555
H20 C28 1_555 1_555
C33 C50 1_555 1_555
C34 C3 1_555 1_555
H24 C34 1_555 1_555
H29 C41 1_555 1_555
C42 O11 1_555 1_555
C45 C8 1_555 1_555
C47 O10 1_555 1_555
H33 C47 1_555 1_555
C50 H36 1_555 1_555
C51 C8 1_555 1_555
H37 C51 1_555 1_555
C52 C33 1_555 1_555
H38 C52 1_555 1_555
H39 C53 1_555 1_555
C56 C47 1_555 1_555
H44 C56 1_555 1_555
H45 C56 1_555 1_555
H46 C56 1_555 1_555
N8 C16 1_555 1_555
C4 C18 1_555 1_555
C12 C34 1_555 1_555
C15 C28 1_555 1_555
C41 C53 1_555 1_555
C42 C47 1_555 1_555
C45 C52 1_555 1_555
C50 C51 1_555 1_555
N2 C19 1_555 1_555
N6 C1 1_555 1_555
N9 C6 1_555 1_555
C1 H1 1_555 1_555
C6 C31 1_555 1_555
C9 N6 1_555 1_555
C11 N9 1_555 1_555
H5 C11 1_555 1_555
C13 N3 1_555 1_555
H7 C13 1_555 1_555
C14 C9 1_555 1_555
H8 C14 1_555 1_555
C19 N9 1_555 1_555
H13 C19 1_555 1_555
C23 N3 1_555 1_555
H16 C23 1_555 1_555
C25 C9 1_555 1_555
H18 C25 1_555 1_555
C26 N2 1_555 1_555
H19 C26 1_555 1_555
C31 C25 1_555 1_555
H22 C31 1_555 1_555
C32 C6 1_555 1_555
H23 C32 1_555 1_555
Ni4 N2 1_555 1_555
N6 C23 1_555 1_555
C1 C13 1_555 1_555
C11 C26 1_555 1_555
C14 C32 1_555 1_555
Ni4 O1 1_555 1_555
O1 H48 1_555 1_555
O6 Ni4 1_555 1_555
C10 C17 1_555 1_555
O9 C27 1_555 1_555
C17 H11 1_555 1_555
C24 H17 1_555 1_555
C27 C24 1_555 1_555
C30 C10 1_555 1_555
C37 O9 1_555 1_555
H27 C37 1_555 1_555
C38 O6 1_555 1_555
O12 C38 1_555 1_555
C46 C10 1_555 1_555
H32 C46 1_555 1_555
C48 C17 1_555 1_555
H34 C48 1_555 1_555
C55 C37 1_555 1_555
H41 C55 1_555 1_555
H42 C55 1_555 1_555
H43 C55 1_555 1_555
N14 Ni4 1_555 1_555
C24 C46 1_555 1_555
C27 C48 1_555 1_555
C37 C38 1_555 1_555
O1 H50 1_555 1_555
N7 C2 1_555 1_555
C2 H2 1_555 1_555
N11 C29 1_555 1_555
C29 N7 1_555 1_555
H21 C29 1_555 1_555
C39 N11 1_555 1_555
C40 H28 1_555 1_555
C43 C2 1_555 1_555
C49 C39 1_555 1_555
H35 C49 1_555 1_555
Ni5 N7 1_555 1_555
N11 C43 1_555 1_555
C40 C49 1_555 1_555
N14 C2_2 1_555 1_555
C2_2 H2_2 1_555 1_555
N11_2 C29_2 1_555 1_555
C29_2 N14 1_555 1_555
H21_2 C29_2 1_555 1_555
C39_2 N11_2 1_555 1_555
C40_2 H28_2 1_555 1_555
C43_2 C2_2 1_555 1_555
C49_2 C39_2 1_555 1_555
H35_2 C49_2 1_555 1_555
N11_2 C43_2 1_555 1_555
C40_2 C49_2 1_555 1_555
Ni5 O1_2 1_555 1_555
O1_2 H48_2 1_555 1_555
O13 C30_2 1_555 1_555
O6_2 Ni5 1_555 1_555
O8_2 C30_2 1_555 1_555
C10_2 C17_2 1_555 1_555
O9_2 C27_2 1_555 1_555
C17_2 H11_2 1_555 1_555
C24_2 H17_2 1_555 1_555
C27_2 C24_2 1_555 1_555
C30_2 C10_2 1_555 1_555
C37_2 O9_2 1_555 1_555
H27_2 C37_2 1_555 1_555
C38_2 O6_2 1_555 1_555
O12_2 C38_2 1_555 1_555
C46_2 C10_2 1_555 1_555
H32_2 C46_2 1_555 1_555
C48_2 C17_2 1_555 1_555
H34_2 C48_2 1_555 1_555
C55_2 C37_2 1_555 1_555
H41_2 C55_2 1_555 1_555
H42_2 C55_2 1_555 1_555
H43_2 C55_2 1_555 1_555
N13 Ni5 1_555 1_555
C24_2 C46_2 1_555 1_555
C27_2 C48_2 1_555 1_555
C37_2 C38_2 1_555 1_555
O1_2 H50_2 1_555 1_555
N13 C19_2 1_555 1_555
N6_2 C1_2 1_555 1_555
N9_2 C6_2 1_555 1_555
C1_2 H1_2 1_555 1_555
C6_2 C31_2 1_555 1_555
C9_2 N6_2 1_555 1_555
C11_2 N9_2 1_555 1_555
H5_2 C11_2 1_555 1_555
C13_2 N3_2 1_555 1_555
H7_2 C13_2 1_555 1_555
C14_2 C9_2 1_555 1_555
H8_2 C14_2 1_555 1_555
C19_2 N9_2 1_555 1_555
H13_2 C19_2 1_555 1_555
C23_2 N3_2 1_555 1_555
H16_2 C23_2 1_555 1_555
C25_2 C9_2 1_555 1_555
H18_2 C25_2 1_555 1_555
C26_2 N13 1_555 1_555
H19_2 C26_2 1_555 1_555
C31_2 C25_2 1_555 1_555
H22_2 C31_2 1_555 1_555
C32_2 C6_2 1_555 1_555
H23_2 C32_2 1_555 1_555
N6_2 C23_2 1_555 1_555
C1_2 C13_2 1_555 1_555
C11_2 C26_2 1_555 1_555
C14_2 C32_2 1_555 1_555
O7_2 C21_2 1_555 1_555
N8_2 C3_2 1_555 1_555
C3_2 C15_2 1_555 1_555
C4_2 N8_2 1_555 1_555
H3_2 C4_2 1_555 1_555
C8_2 C21_2 1_555 1_555
C15_2 H9_2 1_555 1_555
O10_2 C33_2 1_555 1_555
C16_2 N4_2 1_555 1_555
H10_2 C16_2 1_555 1_555
C18_2 N4_2 1_555 1_555
H12_2 C18_2 1_555 1_555
C21_2 O4_2 1_555 1_555
H20_2 C28_2 1_555 1_555
C33_2 C50_2 1_555 1_555
C34_2 C3_2 1_555 1_555
H24_2 C34_2 1_555 1_555
C35 H25 1_555 1_555
H29_2 C41_2 1_555 1_555
C44 N12 1_555 1_555
C45_2 C8_2 1_555 1_555
C47_2 O10_2 1_555 1_555
H33_2 C47_2 1_555 1_555
C50_2 H36_2 1_555 1_555
C51_2 C8_2 1_555 1_555
H37_2 C51_2 1_555 1_555
C52_2 C33_2 1_555 1_555
H38_2 C52_2 1_555 1_555
C53_2 N12 1_555 1_555
H39_2 C53_2 1_555 1_555
C54 C35 1_555 1_555
H40 C54 1_555 1_555
C56_2 C47_2 1_555 1_555
H44_2 C56_2 1_555 1_555
H45_2 C56_2 1_555 1_555
H46_2 C56_2 1_555 1_555
N8_2 C16_2 1_555 1_555
C4_2 C18_2 1_555 1_555
C12_2 C34_2 1_555 1_555
C15_2 C28_2 1_555 1_555
C35 C44 1_555 1_555
C41_2 C53_2 1_555 1_555
C45_2 C52_2 1_555 1_555
C50_2 C51_2 1_555 1_555
O5 C42_2 1_555 1_555
C42_2 O11_2 1_555 1_555
O5 Ni3 1_555 1_555
Ni3 N1_2 1_555 1_555
N1_2 C20_2 1_555 1_555
O2_2 Ni3 1_555 1_555
N5_2 Ni3 1_555 1_555
N10_2 C5_2 1_555 1_555
C7_2 N10_2 1_555 1_555
H4_2 C7_2 1_555 1_555
C20_2 N10_2 1_555 1_555
H14_2 C20_2 1_555 1_555
C22_2 N1_2 1_555 1_555
H15_2 C22_2 1_555 1_555
H47_2 O2_2 1_555 1_555
C7_2 C22_2 1_555 1_555
O2_2 H49_2 1_555 1_555
C35_2 H25_2 1_555 1_555
C44_2 N12_2 1_555 1_555
C54_2 C35_2 1_555 1_555
H40_2 C54_2 1_555 1_555
C35_2 C44_2 1_555 1_555
H26_2 C36_2 1_555 1_555

#END
